{
   "completed_at" : "20200430T170644Z",
   "completed_status" : "Success",
   "current_step" : 29,
   "eplusout_err" : "Program Version,EnergyPlus, Version 9.2.0-921312fa1d, YMD=2020.04.30 11:02,\n   ************* Beginning Zone Sizing Calculations\n   ** Warning ** ProcessScheduleInput: Schedule:Constant=\"ALWAYS ON CONTINUOUS\", Blank Schedule Type Limits Name input -- will not be validated.\n   ** Warning ** CheckUsedConstructions: There are 1 nominally unused constructions in input.\n   **   ~~~   ** For explicit details on each unused construction, use Output:Diagnostics,DisplayExtraWarnings;\n   ** Warning ** GetDXCoils: Coil:Cooling:DX:SingleSpeed=\"RES ROOM AC COOLING COIL\" curve values\n   **   ~~~   ** ... Energy Input Ratio Function of Flow Fraction Curve Name = ROOMAC-EIR-FFF output is not equal to 1.0 (+ or - 10%) at rated conditions.\n   **   ~~~   ** ... Curve output at rated conditions = 1.154\n   ** Warning ** GetDXCoils: Coil:Cooling:DX:SingleSpeed=\"RES ROOM AC|UNIT 10 COOLING COIL\" curve values\n   **   ~~~   ** ... Energy Input Ratio Function of Flow Fraction Curve Name = ROOMAC-EIR-FFF 9 output is not equal to 1.0 (+ or - 10%) at rated conditions.\n   **   ~~~   ** ... Curve output at rated conditions = 1.154\n   ** Warning ** GetDXCoils: Coil:Cooling:DX:SingleSpeed=\"RES ROOM AC|UNIT 11 COOLING COIL\" curve values\n   **   ~~~   ** ... Energy Input Ratio Function of Flow Fraction Curve Name = ROOMAC-EIR-FFF 10 output is not equal to 1.0 (+ or - 10%) at rated conditions.\n   **   ~~~   ** ... Curve output at rated conditions = 1.154\n   ** Warning ** GetDXCoils: Coil:Cooling:DX:SingleSpeed=\"RES ROOM AC|UNIT 12 COOLING COIL\" curve values\n   **   ~~~   ** ... Energy Input Ratio Function of Flow Fraction Curve Name = ROOMAC-EIR-FFF 11 output is not equal to 1.0 (+ or - 10%) at rated conditions.\n   **   ~~~   ** ... Curve output at rated conditions = 1.154\n   ** Warning ** GetDXCoils: Coil:Cooling:DX:SingleSpeed=\"RES ROOM AC|UNIT 13 COOLING COIL\" curve values\n   **   ~~~   ** ... Energy Input Ratio Function of Flow Fraction Curve Name = ROOMAC-EIR-FFF 12 output is not equal to 1.0 (+ or - 10%) at rated conditions.\n   **   ~~~   ** ... Curve output at rated conditions = 1.154\n   ** Warning ** GetDXCoils: Coil:Cooling:DX:SingleSpeed=\"RES ROOM AC|UNIT 14 COOLING COIL\" curve values\n   **   ~~~   ** ... Energy Input Ratio Function of Flow Fraction Curve Name = ROOMAC-EIR-FFF 13 output is not equal to 1.0 (+ or - 10%) at rated conditions.\n   **   ~~~   ** ... Curve output at rated conditions = 1.154\n   ** Warning ** GetDXCoils: Coil:Cooling:DX:SingleSpeed=\"RES ROOM AC|UNIT 15 COOLING COIL\" curve values\n   **   ~~~   ** ... Energy Input Ratio Function of Flow Fraction Curve Name = ROOMAC-EIR-FFF 14 output is not equal to 1.0 (+ or - 10%) at rated conditions.\n   **   ~~~   ** ... Curve output at rated conditions = 1.154\n   ** Warning ** GetDXCoils: Coil:Cooling:DX:SingleSpeed=\"RES ROOM AC|UNIT 16 COOLING COIL\" curve values\n   **   ~~~   ** ... Energy Input Ratio Function of Flow Fraction Curve Name = ROOMAC-EIR-FFF 15 output is not equal to 1.0 (+ or - 10%) at rated conditions.\n   **   ~~~   ** ... Curve output at rated conditions = 1.154\n   ** Warning ** GetDXCoils: Coil:Cooling:DX:SingleSpeed=\"RES ROOM AC|UNIT 17 COOLING COIL\" curve values\n   **   ~~~   ** ... Energy Input Ratio Function of Flow Fraction Curve Name = ROOMAC-EIR-FFF 16 output is not equal to 1.0 (+ or - 10%) at rated conditions.\n   **   ~~~   ** ... Curve output at rated conditions = 1.154\n   ** Warning ** GetDXCoils: Coil:Cooling:DX:SingleSpeed=\"RES ROOM AC|UNIT 18 COOLING COIL\" curve values\n   **   ~~~   ** ... Energy Input Ratio Function of Flow Fraction Curve Name = ROOMAC-EIR-FFF 17 output is not equal to 1.0 (+ or - 10%) at rated conditions.\n   **   ~~~   ** ... Curve output at rated conditions = 1.154\n   ** Warning ** GetDXCoils: Coil:Cooling:DX:SingleSpeed=\"RES ROOM AC|UNIT 19 COOLING COIL\" curve values\n   **   ~~~   ** ... Energy Input Ratio Function of Flow Fraction Curve Name = ROOMAC-EIR-FFF 18 output is not equal to 1.0 (+ or - 10%) at rated conditions.\n   **   ~~~   ** ... Curve output at rated conditions = 1.154\n   ** Warning ** GetDXCoils: Coil:Cooling:DX:SingleSpeed=\"RES ROOM AC|UNIT 2 COOLING COIL\" curve values\n   **   ~~~   ** ... Energy Input Ratio Function of Flow Fraction Curve Name = ROOMAC-EIR-FFF 1 output is not equal to 1.0 (+ or - 10%) at rated conditions.\n   **   ~~~   ** ... Curve output at rated conditions = 1.154\n   ** Warning ** GetDXCoils: Coil:Cooling:DX:SingleSpeed=\"RES ROOM AC|UNIT 20 COOLING COIL\" curve values\n   **   ~~~   ** ... Energy Input Ratio Function of Flow Fraction Curve Name = ROOMAC-EIR-FFF 19 output is not equal to 1.0 (+ or - 10%) at rated conditions.\n   **   ~~~   ** ... Curve output at rated conditions = 1.154\n   ** Warning ** GetDXCoils: Coil:Cooling:DX:SingleSpeed=\"RES ROOM AC|UNIT 21 COOLING COIL\" curve values\n   **   ~~~   ** ... Energy Input Ratio Function of Flow Fraction Curve Name = ROOMAC-EIR-FFF 20 output is not equal to 1.0 (+ or - 10%) at rated conditions.\n   **   ~~~   ** ... Curve output at rated conditions = 1.154\n   ** Warning ** GetDXCoils: Coil:Cooling:DX:SingleSpeed=\"RES ROOM AC|UNIT 3 COOLING COIL\" curve values\n   **   ~~~   ** ... Energy Input Ratio Function of Flow Fraction Curve Name = ROOMAC-EIR-FFF 2 output is not equal to 1.0 (+ or - 10%) at rated conditions.\n   **   ~~~   ** ... Curve output at rated conditions = 1.154\n   ** Warning ** GetDXCoils: Coil:Cooling:DX:SingleSpeed=\"RES ROOM AC|UNIT 4 COOLING COIL\" curve values\n   **   ~~~   ** ... Energy Input Ratio Function of Flow Fraction Curve Name = ROOMAC-EIR-FFF 3 output is not equal to 1.0 (+ or - 10%) at rated conditions.\n   **   ~~~   ** ... Curve output at rated conditions = 1.154\n   ** Warning ** GetDXCoils: Coil:Cooling:DX:SingleSpeed=\"RES ROOM AC|UNIT 5 COOLING COIL\" curve values\n   **   ~~~   ** ... Energy Input Ratio Function of Flow Fraction Curve Name = ROOMAC-EIR-FFF 4 output is not equal to 1.0 (+ or - 10%) at rated conditions.\n   **   ~~~   ** ... Curve output at rated conditions = 1.154\n   ** Warning ** GetDXCoils: Coil:Cooling:DX:SingleSpeed=\"RES ROOM AC|UNIT 6 COOLING COIL\" curve values\n   **   ~~~   ** ... Energy Input Ratio Function of Flow Fraction Curve Name = ROOMAC-EIR-FFF 5 output is not equal to 1.0 (+ or - 10%) at rated conditions.\n   **   ~~~   ** ... Curve output at rated conditions = 1.154\n   ** Warning ** GetDXCoils: Coil:Cooling:DX:SingleSpeed=\"RES ROOM AC|UNIT 7 COOLING COIL\" curve values\n   **   ~~~   ** ... Energy Input Ratio Function of Flow Fraction Curve Name = ROOMAC-EIR-FFF 6 output is not equal to 1.0 (+ or - 10%) at rated conditions.\n   **   ~~~   ** ... Curve output at rated conditions = 1.154\n   ** Warning ** GetDXCoils: Coil:Cooling:DX:SingleSpeed=\"RES ROOM AC|UNIT 8 COOLING COIL\" curve values\n   **   ~~~   ** ... Energy Input Ratio Function of Flow Fraction Curve Name = ROOMAC-EIR-FFF 7 output is not equal to 1.0 (+ or - 10%) at rated conditions.\n   **   ~~~   ** ... Curve output at rated conditions = 1.154\n   ** Warning ** GetDXCoils: Coil:Cooling:DX:SingleSpeed=\"RES ROOM AC|UNIT 9 COOLING COIL\" curve values\n   **   ~~~   ** ... Energy Input Ratio Function of Flow Fraction Curve Name = ROOMAC-EIR-FFF 8 output is not equal to 1.0 (+ or - 10%) at rated conditions.\n   **   ~~~   ** ... Curve output at rated conditions = 1.154\n   ************* Beginning Plant Sizing Calculations\n   ** Warning ** Check input. Pump nominal power or motor efficiency is set to 0, for pump=PUMP VARIABLE SPEED 1\n   ** Warning ** Check input. Pump nominal power or motor efficiency is set to 0, for pump=PUMP VARIABLE SPEED 10\n   ** Warning ** Check input. Pump nominal power or motor efficiency is set to 0, for pump=PUMP VARIABLE SPEED 11\n   ** Warning ** Check input. Pump nominal power or motor efficiency is set to 0, for pump=PUMP VARIABLE SPEED 12\n   ** Warning ** Check input. Pump nominal power or motor efficiency is set to 0, for pump=PUMP VARIABLE SPEED 13\n   ** Warning ** Check input. Pump nominal power or motor efficiency is set to 0, for pump=PUMP VARIABLE SPEED 14\n   ** Warning ** Check input. Pump nominal power or motor efficiency is set to 0, for pump=PUMP VARIABLE SPEED 15\n   ** Warning ** Check input. Pump nominal power or motor efficiency is set to 0, for pump=PUMP VARIABLE SPEED 16\n   ** Warning ** Check input. Pump nominal power or motor efficiency is set to 0, for pump=PUMP VARIABLE SPEED 17\n   ** Warning ** Check input. Pump nominal power or motor efficiency is set to 0, for pump=PUMP VARIABLE SPEED 18\n   ** Warning ** Check input. Pump nominal power or motor efficiency is set to 0, for pump=PUMP VARIABLE SPEED 19\n   ** Warning ** Check input. Pump nominal power or motor efficiency is set to 0, for pump=PUMP VARIABLE SPEED 2\n   ** Warning ** Check input. Pump nominal power or motor efficiency is set to 0, for pump=PUMP VARIABLE SPEED 20\n   ** Warning ** Check input. Pump nominal power or motor efficiency is set to 0, for pump=PUMP VARIABLE SPEED 21\n   ** Warning ** Check input. Pump nominal power or motor efficiency is set to 0, for pump=PUMP VARIABLE SPEED 3\n   ** Warning ** Check input. Pump nominal power or motor efficiency is set to 0, for pump=PUMP VARIABLE SPEED 4\n   ** Warning ** Check input. Pump nominal power or motor efficiency is set to 0, for pump=PUMP VARIABLE SPEED 5\n   ** Warning ** Check input. Pump nominal power or motor efficiency is set to 0, for pump=PUMP VARIABLE SPEED 6\n   ** Warning ** Check input. Pump nominal power or motor efficiency is set to 0, for pump=PUMP VARIABLE SPEED 7\n   ** Warning ** Check input. Pump nominal power or motor efficiency is set to 0, for pump=PUMP VARIABLE SPEED 8\n   ** Warning ** Check input. Pump nominal power or motor efficiency is set to 0, for pump=PUMP VARIABLE SPEED 9\n   ** Warning ** Missing temperature setpoint for LeavingSetpointModulated mode Boiler named BOILER\n   **   ~~~   **   A temperature setpoint is needed at the outlet node of a boiler in variable flow mode\n   **   ~~~   **   use a Setpoint Manager to establish a setpoint at the boiler outlet node \n   **   ~~~   **   or use an EMS actuator to establish a setpoint at the boiler outlet node \n   **   ~~~   **   The overall loop setpoint will be assumed for Boiler. The simulation continues ... \n   ** Warning ** Output:Meter: invalid Key Name=\"GAS:FACILITY\" - not found.\n   ** Warning ** Output:Meter: invalid Key Name=\"DISTRICTCOOLING:FACILITY\" - not found.\n   ** Warning ** Output:Meter: invalid Key Name=\"DISTRICTHEATING:FACILITY\" - not found.\n   ** Warning ** Output:Meter:MeterFileOnly: invalid Key Name=\"GAS:FACILITY\" - not found.\n   ** Warning ** Output:Meter:MeterFileOnly requested for \"Electricity:Facility\" (TimeStep), already on \"Output:Meter\". Will report to both eplusout.eso and eplusout.mtr\n   ************* Testing Individual Branch Integrity\n   ************* All Branches passed integrity testing\n   ************* Testing Individual Supply Air Path Integrity\n   ************* All Supply Air Paths passed integrity testing\n   ************* Testing Individual Return Air Path Integrity\n   ************* All Return Air Paths passed integrity testing\n   ************* No node connection errors were found.\n   ************* Beginning Simulation\n   ** Warning ** CalcDoe2DXCoil: Coil:Cooling:DX:SingleSpeed \"RES ROOM AC|UNIT 10 COOLING COIL\" - Air-cooled condenser inlet dry-bulb temperature below 0 C. Outdoor dry-bulb temperature = -1.60\n   **   ~~~   **  ... Occurrence info = RUN PERIOD 1, 02/03 21:05 - 21:10\n   **   ~~~   ** ... Operation at low ambient temperatures may require special performance curves.\n   ** Warning ** CalcDoe2DXCoil: Coil:Cooling:DX:SingleSpeed \"RES ROOM AC|UNIT 11 COOLING COIL\" - Air-cooled condenser inlet dry-bulb temperature below 0 C. Outdoor dry-bulb temperature = -1.60\n   **   ~~~   **  ... Occurrence info = RUN PERIOD 1, 02/03 21:05 - 21:10\n   **   ~~~   ** ... Operation at low ambient temperatures may require special performance curves.\n   ** Warning ** CalcDoe2DXCoil: Coil:Cooling:DX:SingleSpeed \"RES ROOM AC|UNIT 12 COOLING COIL\" - Air-cooled condenser inlet dry-bulb temperature below 0 C. Outdoor dry-bulb temperature = -1.60\n   **   ~~~   **  ... Occurrence info = RUN PERIOD 1, 02/03 21:05 - 21:10\n   **   ~~~   ** ... Operation at low ambient temperatures may require special performance curves.\n   ** Warning ** CalcDoe2DXCoil: Coil:Cooling:DX:SingleSpeed \"RES ROOM AC|UNIT 13 COOLING COIL\" - Air-cooled condenser inlet dry-bulb temperature below 0 C. Outdoor dry-bulb temperature = -1.60\n   **   ~~~   **  ... Occurrence info = RUN PERIOD 1, 02/03 21:05 - 21:10\n   **   ~~~   ** ... Operation at low ambient temperatures may require special performance curves.\n   ** Warning ** CalcDoe2DXCoil: Coil:Cooling:DX:SingleSpeed \"RES ROOM AC|UNIT 16 COOLING COIL\" - Air-cooled condenser inlet dry-bulb temperature below 0 C. Outdoor dry-bulb temperature = -1.60\n   **   ~~~   **  ... Occurrence info = RUN PERIOD 1, 02/03 21:05 - 21:10\n   **   ~~~   ** ... Operation at low ambient temperatures may require special performance curves.\n   ** Warning ** CalcDoe2DXCoil: Coil:Cooling:DX:SingleSpeed \"RES ROOM AC|UNIT 17 COOLING COIL\" - Air-cooled condenser inlet dry-bulb temperature below 0 C. Outdoor dry-bulb temperature = -1.60\n   **   ~~~   **  ... Occurrence info = RUN PERIOD 1, 02/03 21:05 - 21:10\n   **   ~~~   ** ... Operation at low ambient temperatures may require special performance curves.\n   ** Warning ** CalcDoe2DXCoil: Coil:Cooling:DX:SingleSpeed \"RES ROOM AC|UNIT 18 COOLING COIL\" - Air-cooled condenser inlet dry-bulb temperature below 0 C. Outdoor dry-bulb temperature = -1.60\n   **   ~~~   **  ... Occurrence info = RUN PERIOD 1, 02/03 21:05 - 21:10\n   **   ~~~   ** ... Operation at low ambient temperatures may require special performance curves.\n   ** Warning ** CalcDoe2DXCoil: Coil:Cooling:DX:SingleSpeed \"RES ROOM AC|UNIT 19 COOLING COIL\" - Air-cooled condenser inlet dry-bulb temperature below 0 C. Outdoor dry-bulb temperature = -1.60\n   **   ~~~   **  ... Occurrence info = RUN PERIOD 1, 02/03 21:05 - 21:10\n   **   ~~~   ** ... Operation at low ambient temperatures may require special performance curves.\n   ** Warning ** CalcDoe2DXCoil: Coil:Cooling:DX:SingleSpeed \"RES ROOM AC|UNIT 20 COOLING COIL\" - Air-cooled condenser inlet dry-bulb temperature below 0 C. Outdoor dry-bulb temperature = -1.60\n   **   ~~~   **  ... Occurrence info = RUN PERIOD 1, 02/03 21:05 - 21:10\n   **   ~~~   ** ... Operation at low ambient temperatures may require special performance curves.\n   ** Warning ** CalcDoe2DXCoil: Coil:Cooling:DX:SingleSpeed \"RES ROOM AC|UNIT 9 COOLING COIL\" - Air-cooled condenser inlet dry-bulb temperature below 0 C. Outdoor dry-bulb temperature = -1.60\n   **   ~~~   **  ... Occurrence info = RUN PERIOD 1, 02/03 21:05 - 21:10\n   **   ~~~   ** ... Operation at low ambient temperatures may require special performance curves.\n   ** Warning ** The resource referenced by LifeCycleCost:UsePriceEscalation= \"U.S. AVG  COMMERCIAL-ELECTRICITY\" has no energy cost. \n   **   ~~~   ** ... It is likely that the wrong resource is used. The resource should match the meter used in Utility:Tariff.\n   ** Warning ** The resource referenced by LifeCycleCost:UsePriceEscalation= \"U.S. AVG  COMMERCIAL-DISTILLATE OIL\" has no energy cost. \n   **   ~~~   ** ... It is likely that the wrong resource is used. The resource should match the meter used in Utility:Tariff.\n   ** Warning ** The resource referenced by LifeCycleCost:UsePriceEscalation= \"U.S. AVG  COMMERCIAL-RESIDUAL OIL\" has no energy cost. \n   **   ~~~   ** ... It is likely that the wrong resource is used. The resource should match the meter used in Utility:Tariff.\n   ** Warning ** The resource referenced by LifeCycleCost:UsePriceEscalation= \"U.S. AVG  COMMERCIAL-NATURAL GAS\" has no energy cost. \n   **   ~~~   ** ... It is likely that the wrong resource is used. The resource should match the meter used in Utility:Tariff.\n   ** Warning ** The resource referenced by LifeCycleCost:UsePriceEscalation= \"U.S. AVG  COMMERCIAL-COAL\" has no energy cost. \n   **   ~~~   ** ... It is likely that the wrong resource is used. The resource should match the meter used in Utility:Tariff.\n   ************* Simulation Error Summary *************\n   ************* There are 3 unused schedules in input.\n   ************* There are 43 unused week schedules in input.\n   ************* There are 27 unused day schedules in input.\n   ************* Use Output:Diagnostics,DisplayUnusedSchedules; to see them.\n   *************\n   ************* ===== Recurring Surface Error Summary =====\n   ************* The following surface error messages occurred.\n   *************\n   ************* Base Surface does not surround subsurface errors occuring...\n   ************* Check that the GlobalGeometryRules object is expressing the proper starting corner and direction [CounterClockwise/Clockwise]\n   *************\n   ** Warning ** Base surface does not surround subsurface (CHKSBS), Overlap Status=No-Overlap\n   **   ~~~   **   The base surround errors occurred 1 times.\n   **   ~~~   ** Surface \"SURFACE 171\" misses SubSurface \"UNIT 1 - SURFACE 5 - DOOR\"\n   ** Warning ** Base surface does not surround subsurface (CHKSBS), Overlap Status=No-Overlap\n   **   ~~~   **   The base surround errors occurred 1 times.\n   **   ~~~   ** Surface \"SURFACE 187\" misses SubSurface \"UNIT 10 - SURFACE 55 - DOOR\"\n   ** Warning ** Base surface does not surround subsurface (CHKSBS), Overlap Status=No-Overlap\n   **   ~~~   **   The base surround errors occurred 1 times.\n   **   ~~~   ** Surface \"SURFACE 189\" misses SubSurface \"UNIT 11 - SURFACE 61 - DOOR\"\n   ** Warning ** Base surface does not surround subsurface (CHKSBS), Overlap Status=No-Overlap\n   **   ~~~   **   The base surround errors occurred 1 times.\n   **   ~~~   ** Surface \"SURFACE 191\" misses SubSurface \"UNIT 12 - SURFACE 67 - DOOR\"\n   ** Warning ** Base surface does not surround subsurface (CHKSBS), Overlap Status=No-Overlap\n   **   ~~~   **   The base surround errors occurred 1 times.\n   **   ~~~   ** Surface \"SURFACE 193\" misses SubSurface \"UNIT 13 - SURFACE 73 - DOOR\"\n   ** Warning ** Base surface does not surround subsurface (CHKSBS), Overlap Status=No-Overlap\n   **   ~~~   **   The base surround errors occurred 1 times.\n   **   ~~~   ** Surface \"SURFACE 195\" misses SubSurface \"UNIT 14 - SURFACE 79 - DOOR\"\n   ** Warning ** Base surface does not surround subsurface (CHKSBS), Overlap Status=No-Overlap\n   **   ~~~   **   The base surround errors occurred 1 times.\n   **   ~~~   ** Surface \"SURFACE 197\" misses SubSurface \"UNIT 15 - SURFACE 85 - DOOR\"\n   ** Warning ** Base surface does not surround subsurface (CHKSBS), Overlap Status=No-Overlap\n   **   ~~~   **   The base surround errors occurred 1 times.\n   **   ~~~   ** Surface \"SURFACE 199\" misses SubSurface \"UNIT 16 - SURFACE 91 - DOOR\"\n   ** Warning ** Base surface does not surround subsurface (CHKSBS), Overlap Status=No-Overlap\n   **   ~~~   **   The base surround errors occurred 1 times.\n   **   ~~~   ** Surface \"SURFACE 201\" misses SubSurface \"UNIT 17 - SURFACE 97 - DOOR\"\n   ** Warning ** Base surface does not surround subsurface (CHKSBS), Overlap Status=No-Overlap\n   **   ~~~   **   The base surround errors occurred 1 times.\n   **   ~~~   ** Surface \"SURFACE 203\" misses SubSurface \"UNIT 18 - SURFACE 103 - DOOR\"\n   ** Warning ** Base surface does not surround subsurface (CHKSBS), Overlap Status=No-Overlap\n   **   ~~~   **   The base surround errors occurred 1 times.\n   **   ~~~   ** Surface \"SURFACE 205\" misses SubSurface \"UNIT 19 - SURFACE 109 - DOOR\"\n   ** Warning ** Base surface does not surround subsurface (CHKSBS), Overlap Status=No-Overlap\n   **   ~~~   **   The base surround errors occurred 1 times.\n   **   ~~~   ** Surface \"SURFACE 179\" misses SubSurface \"UNIT 2 - SURFACE 7 - DOOR\"\n   ** Warning ** Base surface does not surround subsurface (CHKSBS), Overlap Status=No-Overlap\n   **   ~~~   **   The base surround errors occurred 1 times.\n   **   ~~~   ** Surface \"SURFACE 207\" misses SubSurface \"UNIT 20 - SURFACE 115 - DOOR\"\n   ** Warning ** Base surface does not surround subsurface (CHKSBS), Overlap Status=No-Overlap\n   **   ~~~   **   The base surround errors occurred 1 times.\n   **   ~~~   ** Surface \"SURFACE 209\" misses SubSurface \"UNIT 21 - SURFACE 121 - DOOR\"\n   ** Warning ** Base surface does not surround subsurface (CHKSBS), Overlap Status=No-Overlap\n   **   ~~~   **   The base surround errors occurred 1 times.\n   **   ~~~   ** Surface \"SURFACE 181\" misses SubSurface \"UNIT 3 - SURFACE 13 - DOOR\"\n   ** Warning ** Base surface does not surround subsurface (CHKSBS), Overlap Status=No-Overlap\n   **   ~~~   **   The base surround errors occurred 1 times.\n   **   ~~~   ** Surface \"SURFACE 173\" misses SubSurface \"UNIT 4 - SURFACE 19 - DOOR\"\n   ** Warning ** Base surface does not surround subsurface (CHKSBS), Overlap Status=No-Overlap\n   **   ~~~   **   The base surround errors occurred 1 times.\n   **   ~~~   ** Surface \"SURFACE 175\" misses SubSurface \"UNIT 5 - SURFACE 25 - DOOR\"\n   ** Warning ** Base surface does not surround subsurface (CHKSBS), Overlap Status=No-Overlap\n   **   ~~~   **   The base surround errors occurred 1 times.\n   **   ~~~   ** Surface \"SURFACE 177\" misses SubSurface \"UNIT 6 - SURFACE 31 - DOOR\"\n   ** Warning ** Base surface does not surround subsurface (CHKSBS), Overlap Status=No-Overlap\n   **   ~~~   **   The base surround errors occurred 1 times.\n   **   ~~~   ** Surface \"SURFACE 183\" misses SubSurface \"UNIT 7 - SURFACE 37 - DOOR\"\n   ** Warning ** Base surface does not surround subsurface (CHKSBS), Overlap Status=No-Overlap\n   **   ~~~   **   The base surround errors occurred 1 times.\n   **   ~~~   ** Surface \"SURFACE 185\" misses SubSurface \"UNIT 8 - SURFACE 43 - DOOR\"\n   ** Warning ** Base surface does not surround subsurface (CHKSBS), Overlap Status=No-Overlap\n   **   ~~~   **   The base surround errors occurred 1 times.\n   **   ~~~   ** Surface \"SURFACE 169\" misses SubSurface \"UNIT 9 - SURFACE 49 - DOOR\"\n   *************\n   **   ~~~   **   The base surround errors occurred 21 times (total).\n   *************\n   *************\n   ************* ===== Recurring Error Summary =====\n   ************* The following recurring error messages occurred.\n   *************\n   *************  ** Warning ** CalcDoe2DXCoil: Coil:Cooling:DX:SingleSpeed=\"RES ROOM AC|UNIT 10 COOLING COIL\" - Low condenser dry-bulb temperature error continues...\n   *************  **   ~~~   **   This error occurred 2 total times;\n   *************  **   ~~~   **   during Warmup 0 times;\n   *************  **   ~~~   **   during Sizing 0 times.\n   *************  **   ~~~   **   Max=-1.6 [C]  Min=-1.7 [C]\n   *************\n   *************  ** Warning ** CalcDoe2DXCoil: Coil:Cooling:DX:SingleSpeed=\"RES ROOM AC|UNIT 11 COOLING COIL\" - Low condenser dry-bulb temperature error continues...\n   *************  **   ~~~   **   This error occurred 2 total times;\n   *************  **   ~~~   **   during Warmup 0 times;\n   *************  **   ~~~   **   during Sizing 0 times.\n   *************  **   ~~~   **   Max=-1.6 [C]  Min=-1.7 [C]\n   *************\n   *************  ** Warning ** CalcDoe2DXCoil: Coil:Cooling:DX:SingleSpeed=\"RES ROOM AC|UNIT 12 COOLING COIL\" - Low condenser dry-bulb temperature error continues...\n   *************  **   ~~~   **   This error occurred 2 total times;\n   *************  **   ~~~   **   during Warmup 0 times;\n   *************  **   ~~~   **   during Sizing 0 times.\n   *************  **   ~~~   **   Max=-1.6 [C]  Min=-1.7 [C]\n   *************\n   *************  ** Warning ** CalcDoe2DXCoil: Coil:Cooling:DX:SingleSpeed=\"RES ROOM AC|UNIT 13 COOLING COIL\" - Low condenser dry-bulb temperature error continues...\n   *************  **   ~~~   **   This error occurred 2 total times;\n   *************  **   ~~~   **   during Warmup 0 times;\n   *************  **   ~~~   **   during Sizing 0 times.\n   *************  **   ~~~   **   Max=-1.6 [C]  Min=-1.7 [C]\n   *************\n   *************  ** Warning ** CalcDoe2DXCoil: Coil:Cooling:DX:SingleSpeed=\"RES ROOM AC|UNIT 16 COOLING COIL\" - Low condenser dry-bulb temperature error continues...\n   *************  **   ~~~   **   This error occurred 1 total times;\n   *************  **   ~~~   **   during Warmup 0 times;\n   *************  **   ~~~   **   during Sizing 0 times.\n   *************  **   ~~~   **   Max=-1.6 [C]  Min=-1.6 [C]\n   *************\n   *************  ** Warning ** CalcDoe2DXCoil: Coil:Cooling:DX:SingleSpeed=\"RES ROOM AC|UNIT 17 COOLING COIL\" - Low condenser dry-bulb temperature error continues...\n   *************  **   ~~~   **   This error occurred 2 total times;\n   *************  **   ~~~   **   during Warmup 0 times;\n   *************  **   ~~~   **   during Sizing 0 times.\n   *************  **   ~~~   **   Max=-1.6 [C]  Min=-1.7 [C]\n   *************\n   *************  ** Warning ** CalcDoe2DXCoil: Coil:Cooling:DX:SingleSpeed=\"RES ROOM AC|UNIT 18 COOLING COIL\" - Low condenser dry-bulb temperature error continues...\n   *************  **   ~~~   **   This error occurred 2 total times;\n   *************  **   ~~~   **   during Warmup 0 times;\n   *************  **   ~~~   **   during Sizing 0 times.\n   *************  **   ~~~   **   Max=-1.6 [C]  Min=-1.7 [C]\n   *************\n   *************  ** Warning ** CalcDoe2DXCoil: Coil:Cooling:DX:SingleSpeed=\"RES ROOM AC|UNIT 19 COOLING COIL\" - Low condenser dry-bulb temperature error continues...\n   *************  **   ~~~   **   This error occurred 2 total times;\n   *************  **   ~~~   **   during Warmup 0 times;\n   *************  **   ~~~   **   during Sizing 0 times.\n   *************  **   ~~~   **   Max=-1.6 [C]  Min=-1.7 [C]\n   *************\n   *************  ** Warning ** CalcDoe2DXCoil: Coil:Cooling:DX:SingleSpeed=\"RES ROOM AC|UNIT 20 COOLING COIL\" - Low condenser dry-bulb temperature error continues...\n   *************  **   ~~~   **   This error occurred 1 total times;\n   *************  **   ~~~   **   during Warmup 0 times;\n   *************  **   ~~~   **   during Sizing 0 times.\n   *************  **   ~~~   **   Max=-1.6 [C]  Min=-1.6 [C]\n   *************\n   *************  ** Warning ** CalcDoe2DXCoil: Coil:Cooling:DX:SingleSpeed=\"RES ROOM AC|UNIT 9 COOLING COIL\" - Low condenser dry-bulb temperature error continues...\n   *************  **   ~~~   **   This error occurred 2 total times;\n   *************  **   ~~~   **   during Warmup 0 times;\n   *************  **   ~~~   **   during Sizing 0 times.\n   *************  **   ~~~   **   Max=-1.6 [C]  Min=-1.7 [C]\n   *************\n   *************\n   ************* ===== Final Error Summary =====\n   ************* The following error categories occurred.  Consider correcting or noting.\n   ************* Nominally Unused Constructions\n   ************* ..The nominally unused constructions warning is provided to alert you to potential conditions that can cause\n   ************* ..extra time during simulation. Each construction is calculated by the algorithm indicated in the HeatBalanceAlgorithm\n   ************* ..object. You may remove the constructions indicated (when you use the DisplayExtraWarnings option).\n   *************\n   ************* EnergyPlus Warmup Error Summary. During Warmup: 0 Warning; 0 Severe Errors.\n   ************* EnergyPlus Sizing Error Summary. During Sizing: 23 Warning; 0 Severe Errors.\n   ************* EnergyPlus Completed Successfully-- 94 Warning; 0 Severe Errors; Elapsed Time=00hr 04min 16.81sec\n",
   "file_paths" : [
      "C:/Users/aspeake/Documents/OpenStudio-BuildStock/workflows/singleunit_osw/testing_2/MF/generated_files",
      "./files",
      "./weather",
      "../../files",
      "../../weather",
      "./"
   ],
   "hash" : "BE9EEB18",
   "measure_paths" : [ "../../../../measures", "../../../../resources/measures" ],
   "started_at" : "20200430T165832Z",
   "steps" : [
      {
         "arguments" : {
            "dst_end_date" : "October 26",
            "dst_start_date" : "April 7",
            "weather_directory" : "../HPXMLtoOpenStudio/weather",
            "weather_file_name" : "USA_NY_New.York-J.F.Kennedy.Intl.AP.744860_TMY3.epw"
         },
         "measure_dir_name" : "ResidentialLocation",
         "result" : {
            "completed_at" : "20200430T165834Z",
            "measure_class_name" : "SetResidentialEPWFile",
            "measure_display_name" : "Set Residential Location",
            "measure_name" : "set_residential_epw_file",
            "measure_taxonomy" : "Whole Building.Space Types",
            "measure_type" : "ModelMeasure",
            "measure_uid" : "16ac2c0c-6177-4bf2-91a5-1b6e8de4e85b",
            "measure_version_id" : "f89321a2-46dc-44ba-a139-698350046035",
            "measure_version_modified" : "20190701T173021Z",
            "measure_xml_checksum" : "D8922A73",
            "started_at" : "20200430T165833Z",
            "stderr" : "",
            "stdout" : "",
            "step_errors" : [],
            "step_files" : [],
            "step_final_condition" : "The weather file path is 'C:/Users/aspeake/Documents/OpenStudio-BuildStock/resources/measures/HPXMLtoOpenStudio/weather/USA_NY_New.York-J.F.Kennedy.Intl.AP.744860_TMY3.epw'.",
            "step_info" : [
               "Setting weather file.",
               "Setting site data.",
               "Setting Building America climate zone to Mixed-Humid.",
               "Setting mains water temperature profile.",
               "Set daylight saving time from 2009-Apr-07 to 2009-Oct-26."
            ],
            "step_result" : "Success",
            "step_values" : [
               {
                  "name" : "weather_directory",
                  "value" : "../HPXMLtoOpenStudio/weather"
               },
               {
                  "name" : "weather_file_name",
                  "value" : "USA_NY_New.York-J.F.Kennedy.Intl.AP.744860_TMY3.epw"
               },
               {
                  "name" : "dst_start_date",
                  "value" : "April 7"
               },
               {
                  "name" : "dst_end_date",
                  "value" : "October 26"
               }
            ],
            "step_warnings" : []
         }
      },
      {
         "arguments" : {
            "balcony_depth" : "0",
            "corridor_position" : "Double-Loaded Interior",
            "corridor_width" : "10",
            "eaves_depth" : "2",
            "foundation_height" : "8",
            "foundation_type" : "unfinished basement",
            "inset_depth" : "0",
            "inset_position" : "Right",
            "inset_width" : "0",
            "minimal_collapsed" : "true",
            "neighbor_back_offset" : "0",
            "neighbor_front_offset" : "0",
            "neighbor_left_offset" : "12",
            "neighbor_right_offset" : "12",
            "num_bathrooms" : "1.5",
            "num_bedrooms" : "2",
            "num_floors" : "3",
            "num_occupants" : "2",
            "num_units" : "21",
            "occupants_monthly_sch" : "1.0, 1.0, 1.0, 1.0, 1.0, 1.0, 1.0, 1.0, 1.0, 1.0, 1.0, 1.0",
            "occupants_weekday_sch" : "1.00, 1.00, 1.00, 1.00, 1.00, 1.00, 1.00, 0.88, 0.41, 0.24, 0.24, 0.24, 0.24, 0.24, 0.24, 0.24, 0.29, 0.55, 0.90, 0.90, 0.90, 1.00, 1.00, 1.00",
            "occupants_weekend_sch" : "1.00, 1.00, 1.00, 1.00, 1.00, 1.00, 1.00, 0.88, 0.41, 0.24, 0.24, 0.24, 0.24, 0.24, 0.24, 0.24, 0.29, 0.55, 0.90, 0.90, 0.90, 1.00, 1.00, 1.00",
            "orientation" : "315",
            "unit_aspect_ratio" : "1.8",
            "unit_ffa" : "1138",
            "wall_height" : "8"
         },
         "measure_dir_name" : "ResidentialGeometryCreateMultifamily_master",
         "result" : {
            "completed_at" : "20200430T165836Z",
            "measure_class_name" : "CreateResidentialMultifamilyGeometry",
            "measure_display_name" : "Create Residential Multifamily Geometry",
            "measure_name" : "create_residential_multifamily_geometry",
            "measure_taxonomy" : "Envelope.Form",
            "measure_type" : "ModelMeasure",
            "measure_uid" : "9bc07973-98a4-46fc-b643-e280628817c5",
            "measure_version_id" : "9ba49ffc-c0c9-4804-85b8-f210d0507f9b",
            "measure_version_modified" : "20200423T160824Z",
            "measure_xml_checksum" : "2AF3A68E",
            "started_at" : "20200430T165834Z",
            "stderr" : "",
            "stdout" : "[openstudio.model.YearDescription] <1> 'UseWeatherFile' is not yet a supported option for YearDescription\n",
            "step_errors" : [],
            "step_files" : [],
            "step_final_condition" : "The building finished with 22 spaces.",
            "step_info" : [
               "The 21-unit building will be modeled using 21 building units.",
               "Unit '0' has been assigned 2 bedroom(s) and 1.5 bathroom(s).",
               "Unit '1' has been assigned 2 bedroom(s) and 1.5 bathroom(s).",
               "Unit '2' has been assigned 2 bedroom(s) and 1.5 bathroom(s).",
               "Unit '3' has been assigned 2 bedroom(s) and 1.5 bathroom(s).",
               "Unit '4' has been assigned 2 bedroom(s) and 1.5 bathroom(s).",
               "Unit '5' has been assigned 2 bedroom(s) and 1.5 bathroom(s).",
               "Unit '6' has been assigned 2 bedroom(s) and 1.5 bathroom(s).",
               "Unit '7' has been assigned 2 bedroom(s) and 1.5 bathroom(s).",
               "Unit '8' has been assigned 2 bedroom(s) and 1.5 bathroom(s).",
               "Unit '9' has been assigned 2 bedroom(s) and 1.5 bathroom(s).",
               "Unit '10' has been assigned 2 bedroom(s) and 1.5 bathroom(s).",
               "Unit '11' has been assigned 2 bedroom(s) and 1.5 bathroom(s).",
               "Unit '12' has been assigned 2 bedroom(s) and 1.5 bathroom(s).",
               "Unit '13' has been assigned 2 bedroom(s) and 1.5 bathroom(s).",
               "Unit '14' has been assigned 2 bedroom(s) and 1.5 bathroom(s).",
               "Unit '15' has been assigned 2 bedroom(s) and 1.5 bathroom(s).",
               "Unit '16' has been assigned 2 bedroom(s) and 1.5 bathroom(s).",
               "Unit '17' has been assigned 2 bedroom(s) and 1.5 bathroom(s).",
               "Unit '18' has been assigned 2 bedroom(s) and 1.5 bathroom(s).",
               "Unit '19' has been assigned 2 bedroom(s) and 1.5 bathroom(s).",
               "Unit '20' has been assigned 2 bedroom(s) and 1.5 bathroom(s).",
               "The building has been assigned 42 bedroom(s) and 31.5 bathroom(s) across 21 unit(s).",
               "unit 1 has been assigned 2.0 occupant(s) for space 'living space'.",
               "unit 2 has been assigned 2.0 occupant(s) for space 'living space|unit 2|story 1'.",
               "unit 3 has been assigned 2.0 occupant(s) for space 'living space|unit 3|story 1'.",
               "unit 4 has been assigned 2.0 occupant(s) for space 'living space|unit 4|story 1'.",
               "unit 5 has been assigned 2.0 occupant(s) for space 'living space|unit 5|story 1'.",
               "unit 6 has been assigned 2.0 occupant(s) for space 'living space|unit 6|story 1'.",
               "unit 7 has been assigned 2.0 occupant(s) for space 'living space|unit 7|story 1'.",
               "unit 8 has been assigned 2.0 occupant(s) for space 'living space|unit 8|story 1'.",
               "unit 9 has been assigned 2.0 occupant(s) for space 'living space|unit 9|story 1'.",
               "unit 10 has been assigned 2.0 occupant(s) for space 'living space|unit 10|story 1'.",
               "unit 11 has been assigned 2.0 occupant(s) for space 'living space|unit 11|story 1'.",
               "unit 12 has been assigned 2.0 occupant(s) for space 'living space|unit 12|story 1'.",
               "unit 13 has been assigned 2.0 occupant(s) for space 'living space|unit 13|story 1'.",
               "unit 14 has been assigned 2.0 occupant(s) for space 'living space|unit 14|story 1'.",
               "unit 15 has been assigned 2.0 occupant(s) for space 'living space|unit 15|story 1'.",
               "unit 16 has been assigned 2.0 occupant(s) for space 'living space|unit 16|story 1'.",
               "unit 17 has been assigned 2.0 occupant(s) for space 'living space|unit 17|story 1'.",
               "unit 18 has been assigned 2.0 occupant(s) for space 'living space|unit 18|story 1'.",
               "unit 19 has been assigned 2.0 occupant(s) for space 'living space|unit 19|story 1'.",
               "unit 20 has been assigned 2.0 occupant(s) for space 'living space|unit 20|story 1'.",
               "unit 21 has been assigned 2.0 occupant(s) for space 'living space|unit 21|story 1'.",
               "The building has been assigned 42.0 occupant(s) across 21 unit(s).",
               "Added 16 res eaves.",
               "Added 2 res neighbors shading surfaces.",
               "The building's initial orientation was 0.0 azimuth.",
               "The building's final orientation was 315.0 azimuth."
            ],
            "step_initial_condition" : "The building started with 0 spaces.",
            "step_result" : "Success",
            "step_values" : [
               {
                  "name" : "unit_ffa",
                  "value" : 1138
               },
               {
                  "name" : "wall_height",
                  "value" : 8
               },
               {
                  "name" : "num_floors",
                  "value" : 3
               },
               {
                  "name" : "num_units",
                  "value" : 21
               },
               {
                  "name" : "unit_aspect_ratio",
                  "value" : 1.8
               },
               {
                  "name" : "corridor_position",
                  "value" : "Double-Loaded Interior"
               },
               {
                  "name" : "corridor_width",
                  "value" : 10
               },
               {
                  "name" : "inset_width",
                  "value" : 0
               },
               {
                  "name" : "inset_depth",
                  "value" : 0
               },
               {
                  "name" : "inset_position",
                  "value" : "Right"
               },
               {
                  "name" : "balcony_depth",
                  "value" : 0
               },
               {
                  "name" : "foundation_type",
                  "value" : "unfinished basement"
               },
               {
                  "name" : "foundation_height",
                  "value" : 8
               },
               {
                  "name" : "eaves_depth",
                  "value" : 2
               },
               {
                  "name" : "num_bedrooms",
                  "value" : "2"
               },
               {
                  "name" : "num_bathrooms",
                  "value" : "1.5"
               },
               {
                  "name" : "num_occupants",
                  "value" : "2"
               },
               {
                  "name" : "occupants_weekday_sch",
                  "value" : "1.00, 1.00, 1.00, 1.00, 1.00, 1.00, 1.00, 0.88, 0.41, 0.24, 0.24, 0.24, 0.24, 0.24, 0.24, 0.24, 0.29, 0.55, 0.90, 0.90, 0.90, 1.00, 1.00, 1.00"
               },
               {
                  "name" : "occupants_weekend_sch",
                  "value" : "1.00, 1.00, 1.00, 1.00, 1.00, 1.00, 1.00, 0.88, 0.41, 0.24, 0.24, 0.24, 0.24, 0.24, 0.24, 0.24, 0.29, 0.55, 0.90, 0.90, 0.90, 1.00, 1.00, 1.00"
               },
               {
                  "name" : "occupants_monthly_sch",
                  "value" : "1.0, 1.0, 1.0, 1.0, 1.0, 1.0, 1.0, 1.0, 1.0, 1.0, 1.0, 1.0"
               },
               {
                  "name" : "neighbor_left_offset",
                  "value" : 12
               },
               {
                  "name" : "neighbor_right_offset",
                  "value" : 12
               },
               {
                  "name" : "neighbor_back_offset",
                  "value" : 0
               },
               {
                  "name" : "neighbor_front_offset",
                  "value" : 0
               },
               {
                  "name" : "orientation",
                  "value" : 315
               },
               {
                  "name" : "minimal_collapsed",
                  "value" : true
               }
            ],
            "step_warnings" : [
               "Specified incompatible corridor; setting corridor position to 'Single Exterior (Front)'."
            ]
         }
      },
      {
         "arguments" : {
            "door_area" : "20"
         },
         "measure_dir_name" : "ResidentialGeometryDoorArea",
         "result" : {
            "completed_at" : "20200430T165837Z",
            "measure_class_name" : "CreateResidentialDoorArea",
            "measure_display_name" : "Set Residential Door Area",
            "measure_name" : "create_residential_door_area",
            "measure_taxonomy" : "Envelope.Fenestration",
            "measure_type" : "ModelMeasure",
            "measure_uid" : "901a04ee-99d4-42b3-91e1-b5b97970f441",
            "measure_version_id" : "84151180-e119-49a1-8696-640cf29feeaf",
            "measure_version_modified" : "20200324T183313Z",
            "measure_xml_checksum" : "9C8A26EB",
            "started_at" : "20200430T165836Z",
            "stderr" : "",
            "stdout" : "",
            "step_errors" : [],
            "step_files" : [],
            "step_final_condition" : "The building has been assigned 420.0 ft^2 total door area.",
            "step_info" : [
               "For unit 1 added 20.0 ft^2 door.",
               "For unit 2 added 20.0 ft^2 door.",
               "For unit 3 added 20.0 ft^2 door.",
               "For unit 4 added 20.0 ft^2 door.",
               "For unit 5 added 20.0 ft^2 door.",
               "For unit 6 added 20.0 ft^2 door.",
               "For unit 7 added 20.0 ft^2 door.",
               "For unit 8 added 20.0 ft^2 door.",
               "For unit 9 added 20.0 ft^2 door.",
               "For unit 10 added 20.0 ft^2 door.",
               "For unit 11 added 20.0 ft^2 door.",
               "For unit 12 added 20.0 ft^2 door.",
               "For unit 13 added 20.0 ft^2 door.",
               "For unit 14 added 20.0 ft^2 door.",
               "For unit 15 added 20.0 ft^2 door.",
               "For unit 16 added 20.0 ft^2 door.",
               "For unit 17 added 20.0 ft^2 door.",
               "For unit 18 added 20.0 ft^2 door.",
               "For unit 19 added 20.0 ft^2 door.",
               "For unit 20 added 20.0 ft^2 door.",
               "For unit 21 added 20.0 ft^2 door."
            ],
            "step_result" : "Success",
            "step_values" : [
               {
                  "name" : "door_area",
                  "value" : 20
               }
            ],
            "step_warnings" : []
         }
      },
      {
         "arguments" : {
            "back_skylight_area" : "0",
            "back_window_area" : "0",
            "back_wwr" : "0.15",
            "front_skylight_area" : "0",
            "front_window_area" : "0",
            "front_wwr" : "0.15",
            "left_skylight_area" : "0",
            "left_window_area" : "0",
            "left_wwr" : "0.15",
            "overhang_back_facade" : "false",
            "overhang_depth" : "0",
            "overhang_front_facade" : "false",
            "overhang_left_facade" : "false",
            "overhang_offset" : "0",
            "overhang_right_facade" : "false",
            "right_skylight_area" : "0",
            "right_window_area" : "0",
            "right_wwr" : "0.15",
            "window_aspect_ratio" : "1.333"
         },
         "measure_dir_name" : "ResidentialGeometryWindowSkylightArea",
         "result" : {
            "completed_at" : "20200430T165837Z",
            "measure_class_name" : "SetResidentialWindowSkylightArea",
            "measure_display_name" : "Set Residential Window/Skylight Area",
            "measure_name" : "set_residential_window_skylight_area",
            "measure_taxonomy" : "Envelope.Fenestration",
            "measure_type" : "ModelMeasure",
            "measure_uid" : "d05f5b32-1ad6-4c3d-964a-0dbd49a7fde8",
            "measure_version_id" : "1bb1dd6d-35bf-4e3c-b52c-d173930c8d5c",
            "measure_version_modified" : "20200324T183313Z",
            "measure_xml_checksum" : "9014E219",
            "started_at" : "20200430T165837Z",
            "stderr" : "",
            "stdout" : "",
            "step_errors" : [],
            "step_files" : [],
            "step_final_condition" : "The building has been assigned 1516.9 ft^2 total window area, and 0.0 ft^2 total skylight area.",
            "step_info" : [
               "Added 3 window(s), totaling 26.5 ft^2, to Surface 49.",
               "Added 3 window(s), totaling 26.5 ft^2, to Surface 5.",
               "Added 3 window(s), totaling 26.5 ft^2, to Surface 19.",
               "Added 3 window(s), totaling 26.5 ft^2, to Surface 25.",
               "Added 3 window(s), totaling 26.5 ft^2, to Surface 31.",
               "Added 3 window(s), totaling 26.5 ft^2, to Surface 7.",
               "Added 3 window(s), totaling 26.5 ft^2, to Surface 13.",
               "Added 3 window(s), totaling 26.5 ft^2, to Surface 37.",
               "Added 3 window(s), totaling 26.5 ft^2, to Surface 43.",
               "Added 3 window(s), totaling 26.5 ft^2, to Surface 55.",
               "Added 3 window(s), totaling 26.5 ft^2, to Surface 61.",
               "Added 3 window(s), totaling 26.5 ft^2, to Surface 67.",
               "Added 3 window(s), totaling 26.5 ft^2, to Surface 73.",
               "Added 3 window(s), totaling 26.5 ft^2, to Surface 79.",
               "Added 3 window(s), totaling 26.5 ft^2, to Surface 85.",
               "Added 3 window(s), totaling 26.5 ft^2, to Surface 91.",
               "Added 3 window(s), totaling 26.5 ft^2, to Surface 97.",
               "Added 3 window(s), totaling 26.5 ft^2, to Surface 103.",
               "Added 3 window(s), totaling 26.5 ft^2, to Surface 109.",
               "Added 3 window(s), totaling 26.5 ft^2, to Surface 115.",
               "Added 3 window(s), totaling 26.5 ft^2, to Surface 121.",
               "Added 3 window(s), totaling 30.2 ft^2, to Surface 53.",
               "Added 3 window(s), totaling 30.2 ft^2, to Surface 3.",
               "Added 3 window(s), totaling 30.2 ft^2, to Surface 23.",
               "Added 3 window(s), totaling 30.2 ft^2, to Surface 29.",
               "Added 3 window(s), totaling 30.2 ft^2, to Surface 35.",
               "Added 3 window(s), totaling 30.2 ft^2, to Surface 11.",
               "Added 3 window(s), totaling 30.2 ft^2, to Surface 17.",
               "Added 3 window(s), totaling 30.2 ft^2, to Surface 41.",
               "Added 3 window(s), totaling 30.2 ft^2, to Surface 47.",
               "Added 3 window(s), totaling 30.2 ft^2, to Surface 59.",
               "Added 3 window(s), totaling 30.2 ft^2, to Surface 65.",
               "Added 3 window(s), totaling 30.2 ft^2, to Surface 71.",
               "Added 3 window(s), totaling 30.2 ft^2, to Surface 77.",
               "Added 3 window(s), totaling 30.2 ft^2, to Surface 83.",
               "Added 3 window(s), totaling 30.2 ft^2, to Surface 89.",
               "Added 3 window(s), totaling 30.2 ft^2, to Surface 95.",
               "Added 3 window(s), totaling 30.2 ft^2, to Surface 101.",
               "Added 3 window(s), totaling 30.2 ft^2, to Surface 107.",
               "Added 3 window(s), totaling 30.2 ft^2, to Surface 113.",
               "Added 3 window(s), totaling 30.2 ft^2, to Surface 119.",
               "Added 3 window(s), totaling 30.2 ft^2, to Surface 125.",
               "Added 5 window(s), totaling 54.3 ft^2, to Surface 2.",
               "Added 5 window(s), totaling 54.3 ft^2, to Surface 44.",
               "Added 5 window(s), totaling 54.3 ft^2, to Surface 86.",
               "Added 5 window(s), totaling 54.3 ft^2, to Surface 42.",
               "Added 5 window(s), totaling 54.3 ft^2, to Surface 84.",
               "Added 5 window(s), totaling 54.3 ft^2, to Surface 126.",
               "No res overhangs to be added."
            ],
            "step_result" : "Success",
            "step_values" : [
               {
                  "name" : "front_wwr",
                  "value" : 0.14999999999999999
               },
               {
                  "name" : "back_wwr",
                  "value" : 0.14999999999999999
               },
               {
                  "name" : "left_wwr",
                  "value" : 0.14999999999999999
               },
               {
                  "name" : "right_wwr",
                  "value" : 0.14999999999999999
               },
               {
                  "name" : "front_window_area",
                  "value" : 0
               },
               {
                  "name" : "back_window_area",
                  "value" : 0
               },
               {
                  "name" : "left_window_area",
                  "value" : 0
               },
               {
                  "name" : "right_window_area",
                  "value" : 0
               },
               {
                  "name" : "window_aspect_ratio",
                  "value" : 1.333
               },
               {
                  "name" : "overhang_depth",
                  "value" : 0
               },
               {
                  "name" : "overhang_offset",
                  "value" : 0
               },
               {
                  "name" : "overhang_front_facade",
                  "value" : false
               },
               {
                  "name" : "overhang_back_facade",
                  "value" : false
               },
               {
                  "name" : "overhang_left_facade",
                  "value" : false
               },
               {
                  "name" : "overhang_right_facade",
                  "value" : false
               },
               {
                  "name" : "front_skylight_area",
                  "value" : 0
               },
               {
                  "name" : "back_skylight_area",
                  "value" : 0
               },
               {
                  "name" : "left_skylight_area",
                  "value" : 0
               },
               {
                  "name" : "right_skylight_area",
                  "value" : 0
               }
            ],
            "step_warnings" : []
         }
      },
      {
         "arguments" : {
            "cavity_depth" : "9.25",
            "cavity_r" : "30",
            "drywall_thick_in" : "0.5",
            "filled_cavity" : "true",
            "framing_factor" : "0.07",
            "install_grade" : "1",
            "osb_thick_in" : "0.75",
            "rigid_r" : "0.0",
            "roofing_material" : "Asphalt Shingles, Medium"
         },
         "measure_dir_name" : "ResidentialConstructionsFinishedRoof",
         "result" : {
            "completed_at" : "20200430T165838Z",
            "measure_class_name" : "ProcessConstructionsFinishedRoof",
            "measure_display_name" : "Set Residential Finished Roof Construction",
            "measure_name" : "process_constructions_finished_roof",
            "measure_taxonomy" : "Envelope.Opaque",
            "measure_type" : "ModelMeasure",
            "measure_uid" : "6349eb9b-6e7e-4ba9-b518-76d2f9f73c79",
            "measure_version_id" : "ef0fbf91-f47d-40e8-9750-d1f20eb916e3",
            "measure_version_modified" : "20200313T223244Z",
            "measure_xml_checksum" : "1E963D9C",
            "started_at" : "20200430T165838Z",
            "stderr" : "",
            "stdout" : "",
            "step_errors" : [],
            "step_files" : [],
            "step_info" : [
               "Material 'Asphalt Shingles, Medium' was created.",
               "Material 'RoofSheathing' was created.",
               "Material 'RoofIns' was created.",
               "Material 'Drywall 0.5 in.' was created.",
               "Construction 'RoofFinInsExt' was created with 4 materials (Asphalt Shingles, Medium | RoofSheathing | RoofIns | Drywall 0.5 in.).",
               "Surface 'Surface 87' has been assigned construction 'RoofFinInsExt'.",
               "Surface 'Surface 93' has been assigned construction 'RoofFinInsExt'.",
               "Surface 'Surface 99' has been assigned construction 'RoofFinInsExt'.",
               "Surface 'Surface 105' has been assigned construction 'RoofFinInsExt'.",
               "Surface 'Surface 111' has been assigned construction 'RoofFinInsExt'.",
               "Surface 'Surface 117' has been assigned construction 'RoofFinInsExt'.",
               "Surface 'Surface 123' has been assigned construction 'RoofFinInsExt'."
            ],
            "step_result" : "Success",
            "step_values" : [
               {
                  "name" : "cavity_r",
                  "value" : 30
               },
               {
                  "name" : "install_grade",
                  "value" : "1"
               },
               {
                  "name" : "cavity_depth",
                  "value" : 9.25
               },
               {
                  "name" : "filled_cavity",
                  "value" : true
               },
               {
                  "name" : "framing_factor",
                  "value" : 0.070000000000000007
               },
               {
                  "name" : "drywall_thick_in",
                  "value" : 0.5
               },
               {
                  "name" : "osb_thick_in",
                  "value" : 0.75
               },
               {
                  "name" : "rigid_r",
                  "value" : 0
               },
               {
                  "name" : "roofing_material",
                  "value" : "Asphalt Shingles, Medium"
               }
            ],
            "step_warnings" : []
         }
      },
      {
         "arguments" : {
            "conductivity" : "5.29",
            "density" : "49",
            "drywall_thick_in" : "0.5",
            "exterior_finish" : "Vinyl, Light",
            "framing_factor" : "0.076",
            "furring_cavity_depth_in" : "1",
            "furring_r" : "0",
            "furring_spacing" : "24",
            "osb_thick_in" : "0.5",
            "rigid_r" : "0.0",
            "thick_in" : "12"
         },
         "measure_dir_name" : "ResidentialConstructionsWallsCMU",
         "result" : {
            "completed_at" : "20200430T165838Z",
            "measure_class_name" : "ProcessConstructionsWallsCMU",
            "measure_display_name" : "Set Residential Walls - CMU Construction",
            "measure_name" : "process_constructions_walls_cmu",
            "measure_taxonomy" : "Envelope.Opaque",
            "measure_type" : "ModelMeasure",
            "measure_uid" : "64c320f1-6e42-4f15-8946-8ca3e5314dd9",
            "measure_version_id" : "c2ad1d45-0c0c-47d4-9992-aafd119dea20",
            "measure_version_modified" : "20200324T183311Z",
            "measure_xml_checksum" : "2609226D",
            "started_at" : "20200430T165838Z",
            "stderr" : "",
            "stdout" : "",
            "step_errors" : [],
            "step_files" : [],
            "step_info" : [
               "Material 'Vinyl, Light' was created.",
               "Material 'WallSheathing' was created.",
               "Material 'WallCMU' was created.",
               "Material 'WallFurring' was created.",
               "Construction 'WallExtInsFin' was created with 5 materials (Vinyl, Light | WallSheathing | WallCMU | WallFurring | Drywall 0.5 in.).",
               "Surface 'Surface 169' has been assigned construction 'WallExtInsFin'.",
               "Surface 'Surface 170' has been assigned construction 'WallExtInsFin'.",
               "Surface 'Surface 49' has been assigned construction 'WallExtInsFin'.",
               "Surface 'Surface 53' has been assigned construction 'WallExtInsFin'.",
               "Surface 'Surface 5' has been assigned construction 'WallExtInsFin'.",
               "Surface 'Surface 2' has been assigned construction 'WallExtInsFin'.",
               "Surface 'Surface 3' has been assigned construction 'WallExtInsFin'.",
               "Surface 'Surface 171' has been assigned construction 'WallExtInsFin'.",
               "Surface 'Surface 172' has been assigned construction 'WallExtInsFin'.",
               "Surface 'Surface 19' has been assigned construction 'WallExtInsFin'.",
               "Surface 'Surface 23' has been assigned construction 'WallExtInsFin'.",
               "Surface 'Surface 173' has been assigned construction 'WallExtInsFin'.",
               "Surface 'Surface 174' has been assigned construction 'WallExtInsFin'.",
               "Surface 'Surface 25' has been assigned construction 'WallExtInsFin'.",
               "Surface 'Surface 29' has been assigned construction 'WallExtInsFin'.",
               "Surface 'Surface 176' has been assigned construction 'WallExtInsFin'.",
               "Surface 'Surface 175' has been assigned construction 'WallExtInsFin'.",
               "Surface 'Surface 177' has been assigned construction 'WallExtInsFin'.",
               "Surface 'Surface 178' has been assigned construction 'WallExtInsFin'.",
               "Surface 'Surface 31' has been assigned construction 'WallExtInsFin'.",
               "Surface 'Surface 35' has been assigned construction 'WallExtInsFin'.",
               "Surface 'Surface 11' has been assigned construction 'WallExtInsFin'.",
               "Surface 'Surface 7' has been assigned construction 'WallExtInsFin'.",
               "Surface 'Surface 179' has been assigned construction 'WallExtInsFin'.",
               "Surface 'Surface 180' has been assigned construction 'WallExtInsFin'.",
               "Surface 'Surface 17' has been assigned construction 'WallExtInsFin'.",
               "Surface 'Surface 13' has been assigned construction 'WallExtInsFin'.",
               "Surface 'Surface 182' has been assigned construction 'WallExtInsFin'.",
               "Surface 'Surface 181' has been assigned construction 'WallExtInsFin'.",
               "Surface 'Surface 183' has been assigned construction 'WallExtInsFin'.",
               "Surface 'Surface 184' has been assigned construction 'WallExtInsFin'.",
               "Surface 'Surface 41' has been assigned construction 'WallExtInsFin'.",
               "Surface 'Surface 42' has been assigned construction 'WallExtInsFin'.",
               "Surface 'Surface 37' has been assigned construction 'WallExtInsFin'.",
               "Surface 'Surface 185' has been assigned construction 'WallExtInsFin'.",
               "Surface 'Surface 186' has been assigned construction 'WallExtInsFin'.",
               "Surface 'Surface 47' has been assigned construction 'WallExtInsFin'.",
               "Surface 'Surface 44' has been assigned construction 'WallExtInsFin'.",
               "Surface 'Surface 43' has been assigned construction 'WallExtInsFin'.",
               "Surface 'Surface 187' has been assigned construction 'WallExtInsFin'.",
               "Surface 'Surface 188' has been assigned construction 'WallExtInsFin'.",
               "Surface 'Surface 55' has been assigned construction 'WallExtInsFin'.",
               "Surface 'Surface 59' has been assigned construction 'WallExtInsFin'.",
               "Surface 'Surface 189' has been assigned construction 'WallExtInsFin'.",
               "Surface 'Surface 190' has been assigned construction 'WallExtInsFin'.",
               "Surface 'Surface 61' has been assigned construction 'WallExtInsFin'.",
               "Surface 'Surface 65' has been assigned construction 'WallExtInsFin'.",
               "Surface 'Surface 192' has been assigned construction 'WallExtInsFin'.",
               "Surface 'Surface 191' has been assigned construction 'WallExtInsFin'.",
               "Surface 'Surface 67' has been assigned construction 'WallExtInsFin'.",
               "Surface 'Surface 71' has been assigned construction 'WallExtInsFin'.",
               "Surface 'Surface 194' has been assigned construction 'WallExtInsFin'.",
               "Surface 'Surface 193' has been assigned construction 'WallExtInsFin'.",
               "Surface 'Surface 77' has been assigned construction 'WallExtInsFin'.",
               "Surface 'Surface 73' has been assigned construction 'WallExtInsFin'.",
               "Surface 'Surface 195' has been assigned construction 'WallExtInsFin'.",
               "Surface 'Surface 196' has been assigned construction 'WallExtInsFin'.",
               "Surface 'Surface 84' has been assigned construction 'WallExtInsFin'.",
               "Surface 'Surface 79' has been assigned construction 'WallExtInsFin'.",
               "Surface 'Surface 83' has been assigned construction 'WallExtInsFin'.",
               "Surface 'Surface 197' has been assigned construction 'WallExtInsFin'.",
               "Surface 'Surface 198' has been assigned construction 'WallExtInsFin'.",
               "Surface 'Surface 85' has been assigned construction 'WallExtInsFin'.",
               "Surface 'Surface 86' has been assigned construction 'WallExtInsFin'.",
               "Surface 'Surface 89' has been assigned construction 'WallExtInsFin'.",
               "Surface 'Surface 200' has been assigned construction 'WallExtInsFin'.",
               "Surface 'Surface 199' has been assigned construction 'WallExtInsFin'.",
               "Surface 'Surface 91' has been assigned construction 'WallExtInsFin'.",
               "Surface 'Surface 95' has been assigned construction 'WallExtInsFin'.",
               "Surface 'Surface 201' has been assigned construction 'WallExtInsFin'.",
               "Surface 'Surface 202' has been assigned construction 'WallExtInsFin'.",
               "Surface 'Surface 101' has been assigned construction 'WallExtInsFin'.",
               "Surface 'Surface 97' has been assigned construction 'WallExtInsFin'.",
               "Surface 'Surface 203' has been assigned construction 'WallExtInsFin'.",
               "Surface 'Surface 204' has been assigned construction 'WallExtInsFin'.",
               "Surface 'Surface 103' has been assigned construction 'WallExtInsFin'.",
               "Surface 'Surface 107' has been assigned construction 'WallExtInsFin'.",
               "Surface 'Surface 206' has been assigned construction 'WallExtInsFin'.",
               "Surface 'Surface 205' has been assigned construction 'WallExtInsFin'.",
               "Surface 'Surface 109' has been assigned construction 'WallExtInsFin'.",
               "Surface 'Surface 113' has been assigned construction 'WallExtInsFin'.",
               "Surface 'Surface 207' has been assigned construction 'WallExtInsFin'.",
               "Surface 'Surface 208' has been assigned construction 'WallExtInsFin'.",
               "Surface 'Surface 119' has been assigned construction 'WallExtInsFin'.",
               "Surface 'Surface 115' has been assigned construction 'WallExtInsFin'.",
               "Surface 'Surface 209' has been assigned construction 'WallExtInsFin'.",
               "Surface 'Surface 210' has been assigned construction 'WallExtInsFin'.",
               "Surface 'Surface 121' has been assigned construction 'WallExtInsFin'.",
               "Surface 'Surface 125' has been assigned construction 'WallExtInsFin'.",
               "Surface 'Surface 126' has been assigned construction 'WallExtInsFin'.",
               "Material 'WallStudAndCavity' was created.",
               "Construction 'WallIntFinUninsFin' was created with 3 materials (Vinyl, Light | WallStudAndCavity | Drywall 0.5 in.).",
               "Surface 'Surface 54' has been assigned construction 'WallIntFinUninsFin'.",
               "Construction 'WallIntFinUninsFin Reversed' was created with 3 materials (Drywall 0.5 in. | WallStudAndCavity | Vinyl, Light).",
               "Surface 'Surface 56' has been assigned construction 'WallIntFinUninsFin Reversed'.",
               "Surface 'Surface 50' has been assigned construction 'WallIntFinUninsFin'.",
               "Surface 'Surface 48' has been assigned construction 'WallIntFinUninsFin Reversed'.",
               "Surface 'Surface 4' has been assigned construction 'WallIntFinUninsFin'.",
               "Surface 'Surface 8' has been assigned construction 'WallIntFinUninsFin Reversed'.",
               "Surface 'Surface 20' has been assigned construction 'WallIntFinUninsFin'.",
               "Surface 'Surface 18' has been assigned construction 'WallIntFinUninsFin Reversed'.",
               "Surface 'Surface 24' has been assigned construction 'WallIntFinUninsFin'.",
               "Surface 'Surface 26' has been assigned construction 'WallIntFinUninsFin Reversed'.",
               "Surface 'Surface 30' has been assigned construction 'WallIntFinUninsFin'.",
               "Surface 'Surface 32' has been assigned construction 'WallIntFinUninsFin Reversed'.",
               "Surface 'Surface 26' has been assigned construction 'WallIntFinUninsFin'.",
               "Surface 'Surface 24' has been assigned construction 'WallIntFinUninsFin Reversed'.",
               "Surface 'Surface 32' has been assigned construction 'WallIntFinUninsFin'.",
               "Surface 'Surface 30' has been assigned construction 'WallIntFinUninsFin Reversed'.",
               "Surface 'Surface 36' has been assigned construction 'WallIntFinUninsFin'.",
               "Surface 'Surface 38' has been assigned construction 'WallIntFinUninsFin Reversed'.",
               "Surface 'Surface 12' has been assigned construction 'WallIntFinUninsFin'.",
               "Surface 'Surface 14' has been assigned construction 'WallIntFinUninsFin Reversed'.",
               "Surface 'Surface 8' has been assigned construction 'WallIntFinUninsFin'.",
               "Surface 'Surface 4' has been assigned construction 'WallIntFinUninsFin Reversed'.",
               "Surface 'Surface 18' has been assigned construction 'WallIntFinUninsFin'.",
               "Surface 'Surface 20' has been assigned construction 'WallIntFinUninsFin Reversed'.",
               "Surface 'Surface 14' has been assigned construction 'WallIntFinUninsFin'.",
               "Surface 'Surface 12' has been assigned construction 'WallIntFinUninsFin Reversed'.",
               "Surface 'Surface 38' has been assigned construction 'WallIntFinUninsFin'.",
               "Surface 'Surface 36' has been assigned construction 'WallIntFinUninsFin Reversed'.",
               "Surface 'Surface 48' has been assigned construction 'WallIntFinUninsFin'.",
               "Surface 'Surface 50' has been assigned construction 'WallIntFinUninsFin Reversed'.",
               "Surface 'Surface 56' has been assigned construction 'WallIntFinUninsFin'.",
               "Surface 'Surface 54' has been assigned construction 'WallIntFinUninsFin Reversed'.",
               "Surface 'Surface 60' has been assigned construction 'WallIntFinUninsFin'.",
               "Surface 'Surface 62' has been assigned construction 'WallIntFinUninsFin Reversed'.",
               "Surface 'Surface 62' has been assigned construction 'WallIntFinUninsFin'.",
               "Surface 'Surface 60' has been assigned construction 'WallIntFinUninsFin Reversed'.",
               "Surface 'Surface 66' has been assigned construction 'WallIntFinUninsFin'.",
               "Surface 'Surface 68' has been assigned construction 'WallIntFinUninsFin Reversed'.",
               "Surface 'Surface 68' has been assigned construction 'WallIntFinUninsFin'.",
               "Surface 'Surface 66' has been assigned construction 'WallIntFinUninsFin Reversed'.",
               "Surface 'Surface 72' has been assigned construction 'WallIntFinUninsFin'.",
               "Surface 'Surface 74' has been assigned construction 'WallIntFinUninsFin Reversed'.",
               "Surface 'Surface 74' has been assigned construction 'WallIntFinUninsFin'.",
               "Surface 'Surface 72' has been assigned construction 'WallIntFinUninsFin Reversed'.",
               "Surface 'Surface 78' has been assigned construction 'WallIntFinUninsFin'.",
               "Surface 'Surface 80' has been assigned construction 'WallIntFinUninsFin Reversed'.",
               "Surface 'Surface 80' has been assigned construction 'WallIntFinUninsFin'.",
               "Surface 'Surface 78' has been assigned construction 'WallIntFinUninsFin Reversed'.",
               "Surface 'Surface 90' has been assigned construction 'WallIntFinUninsFin'.",
               "Surface 'Surface 92' has been assigned construction 'WallIntFinUninsFin Reversed'.",
               "Surface 'Surface 96' has been assigned construction 'WallIntFinUninsFin'.",
               "Surface 'Surface 98' has been assigned construction 'WallIntFinUninsFin Reversed'.",
               "Surface 'Surface 92' has been assigned construction 'WallIntFinUninsFin'.",
               "Surface 'Surface 90' has been assigned construction 'WallIntFinUninsFin Reversed'.",
               "Surface 'Surface 98' has been assigned construction 'WallIntFinUninsFin'.",
               "Surface 'Surface 96' has been assigned construction 'WallIntFinUninsFin Reversed'.",
               "Surface 'Surface 102' has been assigned construction 'WallIntFinUninsFin'.",
               "Surface 'Surface 104' has been assigned construction 'WallIntFinUninsFin Reversed'.",
               "Surface 'Surface 108' has been assigned construction 'WallIntFinUninsFin'.",
               "Surface 'Surface 110' has been assigned construction 'WallIntFinUninsFin Reversed'.",
               "Surface 'Surface 104' has been assigned construction 'WallIntFinUninsFin'.",
               "Surface 'Surface 102' has been assigned construction 'WallIntFinUninsFin Reversed'.",
               "Surface 'Surface 114' has been assigned construction 'WallIntFinUninsFin'.",
               "Surface 'Surface 116' has been assigned construction 'WallIntFinUninsFin Reversed'.",
               "Surface 'Surface 110' has been assigned construction 'WallIntFinUninsFin'.",
               "Surface 'Surface 108' has been assigned construction 'WallIntFinUninsFin Reversed'.",
               "Surface 'Surface 120' has been assigned construction 'WallIntFinUninsFin'.",
               "Surface 'Surface 122' has been assigned construction 'WallIntFinUninsFin Reversed'.",
               "Surface 'Surface 116' has been assigned construction 'WallIntFinUninsFin'.",
               "Surface 'Surface 114' has been assigned construction 'WallIntFinUninsFin Reversed'.",
               "Surface 'Surface 122' has been assigned construction 'WallIntFinUninsFin'.",
               "Surface 'Surface 120' has been assigned construction 'WallIntFinUninsFin Reversed'.",
               "Added internal mass object 'living space|unit 9|story 1 Partition' to space 'living space|unit 9|story 1'",
               "Added internal mass object 'living space Partition' to space 'living space'",
               "Added internal mass object 'living space|unit 4|story 1 Partition' to space 'living space|unit 4|story 1'",
               "Added internal mass object 'living space|unit 5|story 1 Partition' to space 'living space|unit 5|story 1'",
               "Added internal mass object 'living space|unit 6|story 1 Partition' to space 'living space|unit 6|story 1'",
               "Added internal mass object 'living space|unit 2|story 1 Partition' to space 'living space|unit 2|story 1'",
               "Added internal mass object 'living space|unit 3|story 1 Partition' to space 'living space|unit 3|story 1'",
               "Added internal mass object 'living space|unit 7|story 1 Partition' to space 'living space|unit 7|story 1'",
               "Added internal mass object 'living space|unit 8|story 1 Partition' to space 'living space|unit 8|story 1'",
               "Added internal mass object 'living space|unit 10|story 1 Partition' to space 'living space|unit 10|story 1'",
               "Added internal mass object 'living space|unit 11|story 1 Partition' to space 'living space|unit 11|story 1'",
               "Added internal mass object 'living space|unit 12|story 1 Partition' to space 'living space|unit 12|story 1'",
               "Added internal mass object 'living space|unit 13|story 1 Partition' to space 'living space|unit 13|story 1'",
               "Added internal mass object 'living space|unit 14|story 1 Partition' to space 'living space|unit 14|story 1'",
               "Added internal mass object 'living space|unit 15|story 1 Partition' to space 'living space|unit 15|story 1'",
               "Added internal mass object 'living space|unit 16|story 1 Partition' to space 'living space|unit 16|story 1'",
               "Added internal mass object 'living space|unit 17|story 1 Partition' to space 'living space|unit 17|story 1'",
               "Added internal mass object 'living space|unit 18|story 1 Partition' to space 'living space|unit 18|story 1'",
               "Added internal mass object 'living space|unit 19|story 1 Partition' to space 'living space|unit 19|story 1'",
               "Added internal mass object 'living space|unit 20|story 1 Partition' to space 'living space|unit 20|story 1'",
               "Added internal mass object 'living space|unit 21|story 1 Partition' to space 'living space|unit 21|story 1'",
               "Material 'WallStudAndCavity 1' was created.",
               "Construction 'WallIntFinUninsFin 1' was created with 2 materials (WallStudAndCavity 1 | Drywall 0.5 in.).",
               "InternalMassDefinition 'living space|unit 9|story 1 Partition' has been assigned construction 'WallIntFinUninsFin 1'.",
               "InternalMassDefinition 'living space Partition' has been assigned construction 'WallIntFinUninsFin 1'.",
               "InternalMassDefinition 'living space|unit 4|story 1 Partition' has been assigned construction 'WallIntFinUninsFin 1'.",
               "InternalMassDefinition 'living space|unit 5|story 1 Partition' has been assigned construction 'WallIntFinUninsFin 1'.",
               "InternalMassDefinition 'living space|unit 6|story 1 Partition' has been assigned construction 'WallIntFinUninsFin 1'.",
               "InternalMassDefinition 'living space|unit 2|story 1 Partition' has been assigned construction 'WallIntFinUninsFin 1'.",
               "InternalMassDefinition 'living space|unit 3|story 1 Partition' has been assigned construction 'WallIntFinUninsFin 1'.",
               "InternalMassDefinition 'living space|unit 7|story 1 Partition' has been assigned construction 'WallIntFinUninsFin 1'.",
               "InternalMassDefinition 'living space|unit 8|story 1 Partition' has been assigned construction 'WallIntFinUninsFin 1'.",
               "InternalMassDefinition 'living space|unit 10|story 1 Partition' has been assigned construction 'WallIntFinUninsFin 1'.",
               "InternalMassDefinition 'living space|unit 11|story 1 Partition' has been assigned construction 'WallIntFinUninsFin 1'.",
               "InternalMassDefinition 'living space|unit 12|story 1 Partition' has been assigned construction 'WallIntFinUninsFin 1'.",
               "InternalMassDefinition 'living space|unit 13|story 1 Partition' has been assigned construction 'WallIntFinUninsFin 1'.",
               "InternalMassDefinition 'living space|unit 14|story 1 Partition' has been assigned construction 'WallIntFinUninsFin 1'.",
               "InternalMassDefinition 'living space|unit 15|story 1 Partition' has been assigned construction 'WallIntFinUninsFin 1'.",
               "InternalMassDefinition 'living space|unit 16|story 1 Partition' has been assigned construction 'WallIntFinUninsFin 1'.",
               "InternalMassDefinition 'living space|unit 17|story 1 Partition' has been assigned construction 'WallIntFinUninsFin 1'.",
               "InternalMassDefinition 'living space|unit 18|story 1 Partition' has been assigned construction 'WallIntFinUninsFin 1'.",
               "InternalMassDefinition 'living space|unit 19|story 1 Partition' has been assigned construction 'WallIntFinUninsFin 1'.",
               "InternalMassDefinition 'living space|unit 20|story 1 Partition' has been assigned construction 'WallIntFinUninsFin 1'.",
               "InternalMassDefinition 'living space|unit 21|story 1 Partition' has been assigned construction 'WallIntFinUninsFin 1'.",
               "Material 'res furniture material living space|unit 9|story 1' was created.",
               "Construction 'res furniture construction living space|unit 9|story 1' was created with 1 material (res furniture material living space|unit 9|story 1).",
               "InternalMassDefinition 'res furniture mass living space|unit 9|story 1' has been assigned construction 'res furniture construction living space|unit 9|story 1'.",
               "Assigned internal mass object 'res furniture mass living space|unit 9|story 1' to space 'living space|unit 9|story 1'.",
               "Construction 'res furniture construction unfinished basement space' was created with 1 material (res furniture material living space|unit 9|story 1).",
               "InternalMassDefinition 'res furniture mass unfinished basement space' has been assigned construction 'res furniture construction unfinished basement space'.",
               "Assigned internal mass object 'res furniture mass unfinished basement space' to space 'unfinished basement space'.",
               "Construction 'res furniture construction living space' was created with 1 material (res furniture material living space|unit 9|story 1).",
               "InternalMassDefinition 'res furniture mass living space' has been assigned construction 'res furniture construction living space'.",
               "Assigned internal mass object 'res furniture mass living space' to space 'living space'.",
               "Construction 'res furniture construction living space|unit 4|story 1' was created with 1 material (res furniture material living space|unit 9|story 1).",
               "InternalMassDefinition 'res furniture mass living space|unit 4|story 1' has been assigned construction 'res furniture construction living space|unit 4|story 1'.",
               "Assigned internal mass object 'res furniture mass living space|unit 4|story 1' to space 'living space|unit 4|story 1'.",
               "Construction 'res furniture construction living space|unit 5|story 1' was created with 1 material (res furniture material living space|unit 9|story 1).",
               "InternalMassDefinition 'res furniture mass living space|unit 5|story 1' has been assigned construction 'res furniture construction living space|unit 5|story 1'.",
               "Assigned internal mass object 'res furniture mass living space|unit 5|story 1' to space 'living space|unit 5|story 1'.",
               "Construction 'res furniture construction living space|unit 6|story 1' was created with 1 material (res furniture material living space|unit 9|story 1).",
[...]
               "unit 10 Initial Results (w/o ducts):\nHeat Load = 24409 Btu/hr\nCool Load Sens = 7552 Btu/hr\nCool Load Lat = 3351 Btu/hr\nDehumid Load Sens = 3434 Btu/hr\nDehumid Load Lat = 8128 Btu/hr\nHeat Airflow = 0 cfm\nCool Airflow = 327 cfm\n",
               "unit 10 Final Results:\nHeat Load = 24409 Btu/hr\nHeat Load Ducts = 0 Btu/hr\nCool Load Lat = 3351 Btu/hr\nCool Load Sens = 7552 Btu/hr\nCool Load Ducts Lat = 0 Btu/hr\nCool Load Ducts Sens = 0 Btu/hr\nDehumid Load Sens = 3434 Btu/hr\nDehumid Load Ducts Lat = 8128 Btu/hr\nCool Capacity = 11114 Btu/hr\nCool Capacity Sens = 7224 Btu/hr\nHeat Capacity = 0 Btu/hr\nHeat Capacity Supp = 0 Btu/hr\nCool Airflow = 324 cfm\nHeat Airflow = 0 cfm\nDehumid WaterRemoval = 0 L/day\n",
               "Found room air conditioner in living zone|unit 11.",
               "Found central boiler in living zone|unit 11.",
               "unit 11 Zone Loads for living zone|unit 11:\nHeat Windows = 2514 Btu/hr\nHeat Skylights = 0 Btu/hr\nHeat Doors = 212 Btu/hr\nHeat Walls = 2800 Btu/hr\nHeat Roofs = 0 Btu/hr\nHeat Floors = 0 Btu/hr\nHeat Infil = 18883 Btu/hr\nCool Windows = 1996 Btu/hr\nCool Skylights = 0 Btu/hr\nCool Doors = 107 Btu/hr\nCool Walls = 695 Btu/hr\nCool Roofs = 0 Btu/hr\nCool Floors = 0 Btu/hr\nCool Infil Sens = 2003 Btu/hr\nCool Infil Lat = 2499 Btu/hr\nCool IntGains Sens = 2752 Btu/hr\nCool IntGains Lat = 852 Btu/hr\nDehumid Windows = 138 Btu/hr\nDehumid Skylights = 0 Btu/hr\nDehumid Doors = 12 Btu/hr\nDehumid Walls = 154 Btu/hr\nDehumid Roofs = 0 Btu/hr\nDehumid Floors = 0 Btu/hr\nDehumid Infil Sens = 771 Btu/hr\nDehumid Infil Lat = 7128 Btu/hr\nDehumid IntGains Sens = 2359 Btu/hr\nDehumid IntGains Lat = 1000 Btu/hr\n",
               "unit 11 Initial Results (w/o ducts):\nHeat Load = 24409 Btu/hr\nCool Load Sens = 7552 Btu/hr\nCool Load Lat = 3351 Btu/hr\nDehumid Load Sens = 3434 Btu/hr\nDehumid Load Lat = 8128 Btu/hr\nHeat Airflow = 0 cfm\nCool Airflow = 327 cfm\n",
               "unit 11 Final Results:\nHeat Load = 24409 Btu/hr\nHeat Load Ducts = 0 Btu/hr\nCool Load Lat = 3351 Btu/hr\nCool Load Sens = 7552 Btu/hr\nCool Load Ducts Lat = 0 Btu/hr\nCool Load Ducts Sens = 0 Btu/hr\nDehumid Load Sens = 3434 Btu/hr\nDehumid Load Ducts Lat = 8128 Btu/hr\nCool Capacity = 11114 Btu/hr\nCool Capacity Sens = 7224 Btu/hr\nHeat Capacity = 0 Btu/hr\nHeat Capacity Supp = 0 Btu/hr\nCool Airflow = 324 cfm\nHeat Airflow = 0 cfm\nDehumid WaterRemoval = 0 L/day\n",
               "Found room air conditioner in living zone|unit 12.",
               "Found central boiler in living zone|unit 12.",
               "unit 12 Zone Loads for living zone|unit 12:\nHeat Windows = 2514 Btu/hr\nHeat Skylights = 0 Btu/hr\nHeat Doors = 212 Btu/hr\nHeat Walls = 2800 Btu/hr\nHeat Roofs = 0 Btu/hr\nHeat Floors = 0 Btu/hr\nHeat Infil = 18883 Btu/hr\nCool Windows = 1996 Btu/hr\nCool Skylights = 0 Btu/hr\nCool Doors = 107 Btu/hr\nCool Walls = 695 Btu/hr\nCool Roofs = 0 Btu/hr\nCool Floors = 0 Btu/hr\nCool Infil Sens = 2003 Btu/hr\nCool Infil Lat = 2499 Btu/hr\nCool IntGains Sens = 2752 Btu/hr\nCool IntGains Lat = 852 Btu/hr\nDehumid Windows = 138 Btu/hr\nDehumid Skylights = 0 Btu/hr\nDehumid Doors = 12 Btu/hr\nDehumid Walls = 154 Btu/hr\nDehumid Roofs = 0 Btu/hr\nDehumid Floors = 0 Btu/hr\nDehumid Infil Sens = 771 Btu/hr\nDehumid Infil Lat = 7128 Btu/hr\nDehumid IntGains Sens = 2359 Btu/hr\nDehumid IntGains Lat = 1000 Btu/hr\n",
               "unit 12 Initial Results (w/o ducts):\nHeat Load = 24409 Btu/hr\nCool Load Sens = 7552 Btu/hr\nCool Load Lat = 3351 Btu/hr\nDehumid Load Sens = 3434 Btu/hr\nDehumid Load Lat = 8128 Btu/hr\nHeat Airflow = 0 cfm\nCool Airflow = 327 cfm\n",
               "unit 12 Final Results:\nHeat Load = 24409 Btu/hr\nHeat Load Ducts = 0 Btu/hr\nCool Load Lat = 3351 Btu/hr\nCool Load Sens = 7552 Btu/hr\nCool Load Ducts Lat = 0 Btu/hr\nCool Load Ducts Sens = 0 Btu/hr\nDehumid Load Sens = 3434 Btu/hr\nDehumid Load Ducts Lat = 8128 Btu/hr\nCool Capacity = 11114 Btu/hr\nCool Capacity Sens = 7224 Btu/hr\nHeat Capacity = 0 Btu/hr\nHeat Capacity Supp = 0 Btu/hr\nCool Airflow = 324 cfm\nHeat Airflow = 0 cfm\nDehumid WaterRemoval = 0 L/day\n",
               "Found room air conditioner in living zone|unit 13.",
               "Found central boiler in living zone|unit 13.",
               "unit 13 Zone Loads for living zone|unit 13:\nHeat Windows = 2514 Btu/hr\nHeat Skylights = 0 Btu/hr\nHeat Doors = 212 Btu/hr\nHeat Walls = 2800 Btu/hr\nHeat Roofs = 0 Btu/hr\nHeat Floors = 0 Btu/hr\nHeat Infil = 18883 Btu/hr\nCool Windows = 1996 Btu/hr\nCool Skylights = 0 Btu/hr\nCool Doors = 107 Btu/hr\nCool Walls = 695 Btu/hr\nCool Roofs = 0 Btu/hr\nCool Floors = 0 Btu/hr\nCool Infil Sens = 2003 Btu/hr\nCool Infil Lat = 2499 Btu/hr\nCool IntGains Sens = 2752 Btu/hr\nCool IntGains Lat = 852 Btu/hr\nDehumid Windows = 138 Btu/hr\nDehumid Skylights = 0 Btu/hr\nDehumid Doors = 12 Btu/hr\nDehumid Walls = 154 Btu/hr\nDehumid Roofs = 0 Btu/hr\nDehumid Floors = 0 Btu/hr\nDehumid Infil Sens = 771 Btu/hr\nDehumid Infil Lat = 7128 Btu/hr\nDehumid IntGains Sens = 2359 Btu/hr\nDehumid IntGains Lat = 1000 Btu/hr\n",
               "unit 13 Initial Results (w/o ducts):\nHeat Load = 24409 Btu/hr\nCool Load Sens = 7552 Btu/hr\nCool Load Lat = 3351 Btu/hr\nDehumid Load Sens = 3434 Btu/hr\nDehumid Load Lat = 8128 Btu/hr\nHeat Airflow = 0 cfm\nCool Airflow = 327 cfm\n",
               "unit 13 Final Results:\nHeat Load = 24409 Btu/hr\nHeat Load Ducts = 0 Btu/hr\nCool Load Lat = 3351 Btu/hr\nCool Load Sens = 7552 Btu/hr\nCool Load Ducts Lat = 0 Btu/hr\nCool Load Ducts Sens = 0 Btu/hr\nDehumid Load Sens = 3434 Btu/hr\nDehumid Load Ducts Lat = 8128 Btu/hr\nCool Capacity = 11114 Btu/hr\nCool Capacity Sens = 7224 Btu/hr\nHeat Capacity = 0 Btu/hr\nHeat Capacity Supp = 0 Btu/hr\nCool Airflow = 324 cfm\nHeat Airflow = 0 cfm\nDehumid WaterRemoval = 0 L/day\n",
               "Found room air conditioner in living zone|unit 14.",
               "Found central boiler in living zone|unit 14.",
               "unit 14 Zone Loads for living zone|unit 14:\nHeat Windows = 4921 Btu/hr\nHeat Skylights = 0 Btu/hr\nHeat Doors = 212 Btu/hr\nHeat Walls = 5446 Btu/hr\nHeat Roofs = 0 Btu/hr\nHeat Floors = 0 Btu/hr\nHeat Infil = 41695 Btu/hr\nCool Windows = 4453 Btu/hr\nCool Skylights = 0 Btu/hr\nCool Doors = 107 Btu/hr\nCool Walls = 1351 Btu/hr\nCool Roofs = 0 Btu/hr\nCool Floors = 0 Btu/hr\nCool Infil Sens = 4459 Btu/hr\nCool Infil Lat = 5563 Btu/hr\nCool IntGains Sens = 2752 Btu/hr\nCool IntGains Lat = 852 Btu/hr\nDehumid Windows = 270 Btu/hr\nDehumid Skylights = 0 Btu/hr\nDehumid Doors = 12 Btu/hr\nDehumid Walls = 299 Btu/hr\nDehumid Roofs = 0 Btu/hr\nDehumid Floors = 0 Btu/hr\nDehumid Infil Sens = 1873 Btu/hr\nDehumid Infil Lat = 17318 Btu/hr\nDehumid IntGains Sens = 2359 Btu/hr\nDehumid IntGains Lat = 1000 Btu/hr\n",
               "unit 14 Initial Results (w/o ducts):\nHeat Load = 52274 Btu/hr\nCool Load Sens = 13121 Btu/hr\nCool Load Lat = 6415 Btu/hr\nDehumid Load Sens = 4814 Btu/hr\nDehumid Load Lat = 18318 Btu/hr\nHeat Airflow = 0 cfm\nCool Airflow = 568 cfm\n",
               "unit 14 Final Results:\nHeat Load = 52274 Btu/hr\nHeat Load Ducts = 0 Btu/hr\nCool Load Lat = 6415 Btu/hr\nCool Load Sens = 13121 Btu/hr\nCool Load Ducts Lat = 0 Btu/hr\nCool Load Ducts Sens = 0 Btu/hr\nDehumid Load Sens = 4814 Btu/hr\nDehumid Load Ducts Lat = 18318 Btu/hr\nCool Capacity = 19914 Btu/hr\nCool Capacity Sens = 12944 Btu/hr\nHeat Capacity = 0 Btu/hr\nHeat Capacity Supp = 0 Btu/hr\nCool Airflow = 581 cfm\nHeat Airflow = 0 cfm\nDehumid WaterRemoval = 0 L/day\n",
               "Found room air conditioner in living zone|unit 15.",
               "Found central boiler in living zone|unit 15.",
               "unit 15 Zone Loads for living zone|unit 15:\nHeat Windows = 4921 Btu/hr\nHeat Skylights = 0 Btu/hr\nHeat Doors = 212 Btu/hr\nHeat Walls = 5446 Btu/hr\nHeat Roofs = 2017 Btu/hr\nHeat Floors = 0 Btu/hr\nHeat Infil = 41695 Btu/hr\nCool Windows = 5238 Btu/hr\nCool Skylights = 0 Btu/hr\nCool Doors = 107 Btu/hr\nCool Walls = 1351 Btu/hr\nCool Roofs = 781 Btu/hr\nCool Floors = 0 Btu/hr\nCool Infil Sens = 4459 Btu/hr\nCool Infil Lat = 5563 Btu/hr\nCool IntGains Sens = 2752 Btu/hr\nCool IntGains Lat = 852 Btu/hr\nDehumid Windows = 270 Btu/hr\nDehumid Skylights = 0 Btu/hr\nDehumid Doors = 12 Btu/hr\nDehumid Walls = 299 Btu/hr\nDehumid Roofs = 111 Btu/hr\nDehumid Floors = 0 Btu/hr\nDehumid Infil Sens = 1873 Btu/hr\nDehumid Infil Lat = 17318 Btu/hr\nDehumid IntGains Sens = 2359 Btu/hr\nDehumid IntGains Lat = 1000 Btu/hr\n",
               "unit 15 Initial Results (w/o ducts):\nHeat Load = 54291 Btu/hr\nCool Load Sens = 14688 Btu/hr\nCool Load Lat = 6415 Btu/hr\nDehumid Load Sens = 4925 Btu/hr\nDehumid Load Lat = 18318 Btu/hr\nHeat Airflow = 0 cfm\nCool Airflow = 636 cfm\n",
               "unit 15 Final Results:\nHeat Load = 54291 Btu/hr\nHeat Load Ducts = 0 Btu/hr\nCool Load Lat = 6415 Btu/hr\nCool Load Sens = 14688 Btu/hr\nCool Load Ducts Lat = 0 Btu/hr\nCool Load Ducts Sens = 0 Btu/hr\nDehumid Load Sens = 4925 Btu/hr\nDehumid Load Ducts Lat = 18318 Btu/hr\nCool Capacity = 21511 Btu/hr\nCool Capacity Sens = 13982 Btu/hr\nHeat Capacity = 0 Btu/hr\nHeat Capacity Supp = 0 Btu/hr\nCool Airflow = 627 cfm\nHeat Airflow = 0 cfm\nDehumid WaterRemoval = 0 L/day\n",
               "Found room air conditioner in living zone|unit 16.",
               "Found central boiler in living zone|unit 16.",
               "unit 16 Zone Loads for living zone|unit 16:\nHeat Windows = 2514 Btu/hr\nHeat Skylights = 0 Btu/hr\nHeat Doors = 212 Btu/hr\nHeat Walls = 2800 Btu/hr\nHeat Roofs = 2017 Btu/hr\nHeat Floors = 0 Btu/hr\nHeat Infil = 18883 Btu/hr\nCool Windows = 1996 Btu/hr\nCool Skylights = 0 Btu/hr\nCool Doors = 107 Btu/hr\nCool Walls = 695 Btu/hr\nCool Roofs = 781 Btu/hr\nCool Floors = 0 Btu/hr\nCool Infil Sens = 2003 Btu/hr\nCool Infil Lat = 2499 Btu/hr\nCool IntGains Sens = 2752 Btu/hr\nCool IntGains Lat = 852 Btu/hr\nDehumid Windows = 138 Btu/hr\nDehumid Skylights = 0 Btu/hr\nDehumid Doors = 12 Btu/hr\nDehumid Walls = 154 Btu/hr\nDehumid Roofs = 111 Btu/hr\nDehumid Floors = 0 Btu/hr\nDehumid Infil Sens = 771 Btu/hr\nDehumid Infil Lat = 7128 Btu/hr\nDehumid IntGains Sens = 2359 Btu/hr\nDehumid IntGains Lat = 1000 Btu/hr\n",
               "unit 16 Initial Results (w/o ducts):\nHeat Load = 26426 Btu/hr\nCool Load Sens = 8334 Btu/hr\nCool Load Lat = 3351 Btu/hr\nDehumid Load Sens = 3545 Btu/hr\nDehumid Load Lat = 8128 Btu/hr\nHeat Airflow = 0 cfm\nCool Airflow = 361 cfm\n",
               "unit 16 Final Results:\nHeat Load = 26426 Btu/hr\nHeat Load Ducts = 0 Btu/hr\nCool Load Lat = 3351 Btu/hr\nCool Load Sens = 8334 Btu/hr\nCool Load Ducts Lat = 0 Btu/hr\nCool Load Ducts Sens = 0 Btu/hr\nDehumid Load Sens = 3545 Btu/hr\nDehumid Load Ducts Lat = 8128 Btu/hr\nCool Capacity = 11911 Btu/hr\nCool Capacity Sens = 7742 Btu/hr\nHeat Capacity = 0 Btu/hr\nHeat Capacity Supp = 0 Btu/hr\nCool Airflow = 347 cfm\nHeat Airflow = 0 cfm\nDehumid WaterRemoval = 0 L/day\n",
               "Found room air conditioner in living zone|unit 17.",
               "Found central boiler in living zone|unit 17.",
               "unit 17 Zone Loads for living zone|unit 17:\nHeat Windows = 2514 Btu/hr\nHeat Skylights = 0 Btu/hr\nHeat Doors = 212 Btu/hr\nHeat Walls = 2800 Btu/hr\nHeat Roofs = 2017 Btu/hr\nHeat Floors = 0 Btu/hr\nHeat Infil = 18883 Btu/hr\nCool Windows = 1996 Btu/hr\nCool Skylights = 0 Btu/hr\nCool Doors = 107 Btu/hr\nCool Walls = 695 Btu/hr\nCool Roofs = 781 Btu/hr\nCool Floors = 0 Btu/hr\nCool Infil Sens = 2003 Btu/hr\nCool Infil Lat = 2499 Btu/hr\nCool IntGains Sens = 2752 Btu/hr\nCool IntGains Lat = 852 Btu/hr\nDehumid Windows = 138 Btu/hr\nDehumid Skylights = 0 Btu/hr\nDehumid Doors = 12 Btu/hr\nDehumid Walls = 154 Btu/hr\nDehumid Roofs = 111 Btu/hr\nDehumid Floors = 0 Btu/hr\nDehumid Infil Sens = 771 Btu/hr\nDehumid Infil Lat = 7128 Btu/hr\nDehumid IntGains Sens = 2359 Btu/hr\nDehumid IntGains Lat = 1000 Btu/hr\n",
               "unit 17 Initial Results (w/o ducts):\nHeat Load = 26426 Btu/hr\nCool Load Sens = 8334 Btu/hr\nCool Load Lat = 3351 Btu/hr\nDehumid Load Sens = 3545 Btu/hr\nDehumid Load Lat = 8128 Btu/hr\nHeat Airflow = 0 cfm\nCool Airflow = 361 cfm\n",
               "unit 17 Final Results:\nHeat Load = 26426 Btu/hr\nHeat Load Ducts = 0 Btu/hr\nCool Load Lat = 3351 Btu/hr\nCool Load Sens = 8334 Btu/hr\nCool Load Ducts Lat = 0 Btu/hr\nCool Load Ducts Sens = 0 Btu/hr\nDehumid Load Sens = 3545 Btu/hr\nDehumid Load Ducts Lat = 8128 Btu/hr\nCool Capacity = 11911 Btu/hr\nCool Capacity Sens = 7742 Btu/hr\nHeat Capacity = 0 Btu/hr\nHeat Capacity Supp = 0 Btu/hr\nCool Airflow = 347 cfm\nHeat Airflow = 0 cfm\nDehumid WaterRemoval = 0 L/day\n",
               "Found room air conditioner in living zone|unit 18.",
               "Found central boiler in living zone|unit 18.",
               "unit 18 Zone Loads for living zone|unit 18:\nHeat Windows = 2514 Btu/hr\nHeat Skylights = 0 Btu/hr\nHeat Doors = 212 Btu/hr\nHeat Walls = 2800 Btu/hr\nHeat Roofs = 2017 Btu/hr\nHeat Floors = 0 Btu/hr\nHeat Infil = 18883 Btu/hr\nCool Windows = 1996 Btu/hr\nCool Skylights = 0 Btu/hr\nCool Doors = 107 Btu/hr\nCool Walls = 695 Btu/hr\nCool Roofs = 781 Btu/hr\nCool Floors = 0 Btu/hr\nCool Infil Sens = 2003 Btu/hr\nCool Infil Lat = 2499 Btu/hr\nCool IntGains Sens = 2752 Btu/hr\nCool IntGains Lat = 852 Btu/hr\nDehumid Windows = 138 Btu/hr\nDehumid Skylights = 0 Btu/hr\nDehumid Doors = 12 Btu/hr\nDehumid Walls = 154 Btu/hr\nDehumid Roofs = 111 Btu/hr\nDehumid Floors = 0 Btu/hr\nDehumid Infil Sens = 771 Btu/hr\nDehumid Infil Lat = 7128 Btu/hr\nDehumid IntGains Sens = 2359 Btu/hr\nDehumid IntGains Lat = 1000 Btu/hr\n",
               "unit 18 Initial Results (w/o ducts):\nHeat Load = 26426 Btu/hr\nCool Load Sens = 8334 Btu/hr\nCool Load Lat = 3351 Btu/hr\nDehumid Load Sens = 3545 Btu/hr\nDehumid Load Lat = 8128 Btu/hr\nHeat Airflow = 0 cfm\nCool Airflow = 361 cfm\n",
               "unit 18 Final Results:\nHeat Load = 26426 Btu/hr\nHeat Load Ducts = 0 Btu/hr\nCool Load Lat = 3351 Btu/hr\nCool Load Sens = 8334 Btu/hr\nCool Load Ducts Lat = 0 Btu/hr\nCool Load Ducts Sens = 0 Btu/hr\nDehumid Load Sens = 3545 Btu/hr\nDehumid Load Ducts Lat = 8128 Btu/hr\nCool Capacity = 11911 Btu/hr\nCool Capacity Sens = 7742 Btu/hr\nHeat Capacity = 0 Btu/hr\nHeat Capacity Supp = 0 Btu/hr\nCool Airflow = 347 cfm\nHeat Airflow = 0 cfm\nDehumid WaterRemoval = 0 L/day\n",
               "Found room air conditioner in living zone|unit 19.",
               "Found central boiler in living zone|unit 19.",
               "unit 19 Zone Loads for living zone|unit 19:\nHeat Windows = 2514 Btu/hr\nHeat Skylights = 0 Btu/hr\nHeat Doors = 212 Btu/hr\nHeat Walls = 2800 Btu/hr\nHeat Roofs = 2017 Btu/hr\nHeat Floors = 0 Btu/hr\nHeat Infil = 18883 Btu/hr\nCool Windows = 1996 Btu/hr\nCool Skylights = 0 Btu/hr\nCool Doors = 107 Btu/hr\nCool Walls = 695 Btu/hr\nCool Roofs = 781 Btu/hr\nCool Floors = 0 Btu/hr\nCool Infil Sens = 2003 Btu/hr\nCool Infil Lat = 2499 Btu/hr\nCool IntGains Sens = 2752 Btu/hr\nCool IntGains Lat = 852 Btu/hr\nDehumid Windows = 138 Btu/hr\nDehumid Skylights = 0 Btu/hr\nDehumid Doors = 12 Btu/hr\nDehumid Walls = 154 Btu/hr\nDehumid Roofs = 111 Btu/hr\nDehumid Floors = 0 Btu/hr\nDehumid Infil Sens = 771 Btu/hr\nDehumid Infil Lat = 7128 Btu/hr\nDehumid IntGains Sens = 2359 Btu/hr\nDehumid IntGains Lat = 1000 Btu/hr\n",
               "unit 19 Initial Results (w/o ducts):\nHeat Load = 26426 Btu/hr\nCool Load Sens = 8334 Btu/hr\nCool Load Lat = 3351 Btu/hr\nDehumid Load Sens = 3545 Btu/hr\nDehumid Load Lat = 8128 Btu/hr\nHeat Airflow = 0 cfm\nCool Airflow = 361 cfm\n",
               "unit 19 Final Results:\nHeat Load = 26426 Btu/hr\nHeat Load Ducts = 0 Btu/hr\nCool Load Lat = 3351 Btu/hr\nCool Load Sens = 8334 Btu/hr\nCool Load Ducts Lat = 0 Btu/hr\nCool Load Ducts Sens = 0 Btu/hr\nDehumid Load Sens = 3545 Btu/hr\nDehumid Load Ducts Lat = 8128 Btu/hr\nCool Capacity = 11911 Btu/hr\nCool Capacity Sens = 7742 Btu/hr\nHeat Capacity = 0 Btu/hr\nHeat Capacity Supp = 0 Btu/hr\nCool Airflow = 347 cfm\nHeat Airflow = 0 cfm\nDehumid WaterRemoval = 0 L/day\n",
               "Found room air conditioner in living zone|unit 20.",
               "Found central boiler in living zone|unit 20.",
               "unit 20 Zone Loads for living zone|unit 20:\nHeat Windows = 2514 Btu/hr\nHeat Skylights = 0 Btu/hr\nHeat Doors = 212 Btu/hr\nHeat Walls = 2800 Btu/hr\nHeat Roofs = 2017 Btu/hr\nHeat Floors = 0 Btu/hr\nHeat Infil = 18883 Btu/hr\nCool Windows = 1996 Btu/hr\nCool Skylights = 0 Btu/hr\nCool Doors = 107 Btu/hr\nCool Walls = 695 Btu/hr\nCool Roofs = 781 Btu/hr\nCool Floors = 0 Btu/hr\nCool Infil Sens = 2003 Btu/hr\nCool Infil Lat = 2499 Btu/hr\nCool IntGains Sens = 2752 Btu/hr\nCool IntGains Lat = 852 Btu/hr\nDehumid Windows = 138 Btu/hr\nDehumid Skylights = 0 Btu/hr\nDehumid Doors = 12 Btu/hr\nDehumid Walls = 154 Btu/hr\nDehumid Roofs = 111 Btu/hr\nDehumid Floors = 0 Btu/hr\nDehumid Infil Sens = 771 Btu/hr\nDehumid Infil Lat = 7128 Btu/hr\nDehumid IntGains Sens = 2359 Btu/hr\nDehumid IntGains Lat = 1000 Btu/hr\n",
               "unit 20 Initial Results (w/o ducts):\nHeat Load = 26426 Btu/hr\nCool Load Sens = 8334 Btu/hr\nCool Load Lat = 3351 Btu/hr\nDehumid Load Sens = 3545 Btu/hr\nDehumid Load Lat = 8128 Btu/hr\nHeat Airflow = 0 cfm\nCool Airflow = 361 cfm\n",
               "unit 20 Final Results:\nHeat Load = 26426 Btu/hr\nHeat Load Ducts = 0 Btu/hr\nCool Load Lat = 3351 Btu/hr\nCool Load Sens = 8334 Btu/hr\nCool Load Ducts Lat = 0 Btu/hr\nCool Load Ducts Sens = 0 Btu/hr\nDehumid Load Sens = 3545 Btu/hr\nDehumid Load Ducts Lat = 8128 Btu/hr\nCool Capacity = 11911 Btu/hr\nCool Capacity Sens = 7742 Btu/hr\nHeat Capacity = 0 Btu/hr\nHeat Capacity Supp = 0 Btu/hr\nCool Airflow = 347 cfm\nHeat Airflow = 0 cfm\nDehumid WaterRemoval = 0 L/day\n",
               "Found room air conditioner in living zone|unit 21.",
               "Found central boiler in living zone|unit 21.",
               "unit 21 Zone Loads for living zone|unit 21:\nHeat Windows = 4921 Btu/hr\nHeat Skylights = 0 Btu/hr\nHeat Doors = 212 Btu/hr\nHeat Walls = 5446 Btu/hr\nHeat Roofs = 2017 Btu/hr\nHeat Floors = 0 Btu/hr\nHeat Infil = 41695 Btu/hr\nCool Windows = 4453 Btu/hr\nCool Skylights = 0 Btu/hr\nCool Doors = 107 Btu/hr\nCool Walls = 1351 Btu/hr\nCool Roofs = 781 Btu/hr\nCool Floors = 0 Btu/hr\nCool Infil Sens = 4459 Btu/hr\nCool Infil Lat = 5563 Btu/hr\nCool IntGains Sens = 2752 Btu/hr\nCool IntGains Lat = 852 Btu/hr\nDehumid Windows = 270 Btu/hr\nDehumid Skylights = 0 Btu/hr\nDehumid Doors = 12 Btu/hr\nDehumid Walls = 299 Btu/hr\nDehumid Roofs = 111 Btu/hr\nDehumid Floors = 0 Btu/hr\nDehumid Infil Sens = 1873 Btu/hr\nDehumid Infil Lat = 17318 Btu/hr\nDehumid IntGains Sens = 2359 Btu/hr\nDehumid IntGains Lat = 1000 Btu/hr\n",
               "unit 21 Initial Results (w/o ducts):\nHeat Load = 54291 Btu/hr\nCool Load Sens = 13903 Btu/hr\nCool Load Lat = 6415 Btu/hr\nDehumid Load Sens = 4925 Btu/hr\nDehumid Load Lat = 18318 Btu/hr\nHeat Airflow = 0 cfm\nCool Airflow = 602 cfm\n",
               "unit 21 Final Results:\nHeat Load = 54291 Btu/hr\nHeat Load Ducts = 0 Btu/hr\nCool Load Lat = 6415 Btu/hr\nCool Load Sens = 13903 Btu/hr\nCool Load Ducts Lat = 0 Btu/hr\nCool Load Ducts Sens = 0 Btu/hr\nDehumid Load Sens = 4925 Btu/hr\nDehumid Load Ducts Lat = 18318 Btu/hr\nCool Capacity = 20711 Btu/hr\nCool Capacity Sens = 13462 Btu/hr\nHeat Capacity = 0 Btu/hr\nHeat Capacity Supp = 0 Btu/hr\nCool Airflow = 604 cfm\nHeat Airflow = 0 cfm\nDehumid WaterRemoval = 0 L/day\n"
            ],
            "step_result" : "Success",
            "step_values" : [
               {
                  "name" : "show_debug_info",
                  "value" : true
               }
            ],
            "step_warnings" : []
         }
      }
   ],
   "updated_at" : "20200430T170645Z"
}
