{
   "completed_at" : "20191210T173537Z",
   "completed_status" : "Success",
   "current_step" : 29,
   "eplusout_err" : "Program Version,EnergyPlus, Version 9.2.0-921312fa1d, YMD=2019.12.10 10:34,\n   ************* Beginning Zone Sizing Calculations\n   ** Warning ** ProcessScheduleInput: Schedule:Constant=\"ALWAYS OFF DISCRETE\", Blank Schedule Type Limits Name input -- will not be validated.\n   ** Warning ** ProcessScheduleInput: Schedule:Constant=\"ALWAYS ON CONTINUOUS\", Blank Schedule Type Limits Name input -- will not be validated.\n   ** Warning ** CalculateZoneVolume: 1 zone is not fully enclosed. For more details use:  Output:Diagnostics,DisplayExtrawarnings; \n   ** Warning ** CheckUsedConstructions: There are 2 nominally unused constructions in input.\n   **   ~~~   ** For explicit details on each unused construction, use Output:Diagnostics,DisplayExtraWarnings;\n   ************* Beginning Plant Sizing Calculations\n   ** Warning ** Check input. Pump nominal power or motor efficiency is set to 0, for pump=PUMP VARIABLE SPEED 1\n   ** Warning ** Check input. Pump nominal power or motor efficiency is set to 0, for pump=PUMP VARIABLE SPEED 2\n   ** Warning ** Check input. Pump nominal power or motor efficiency is set to 0, for pump=PUMP VARIABLE SPEED 3\n   ** Warning ** Check input. Pump nominal power or motor efficiency is set to 0, for pump=PUMP VARIABLE SPEED 4\n   ** Warning ** Check input. Pump nominal power or motor efficiency is set to 0, for pump=PUMP VARIABLE SPEED 5\n   ** Warning ** Check input. Pump nominal power or motor efficiency is set to 0, for pump=PUMP VARIABLE SPEED 6\n   ** Warning ** Missing temperature setpoint for LeavingSetpointModulated mode Boiler named BOILER\n   **   ~~~   **   A temperature setpoint is needed at the outlet node of a boiler in variable flow mode\n   **   ~~~   **   use a Setpoint Manager to establish a setpoint at the boiler outlet node \n   **   ~~~   **   or use an EMS actuator to establish a setpoint at the boiler outlet node \n   **   ~~~   **   The overall loop setpoint will be assumed for Boiler. The simulation continues ... \n   ** Warning ** Output:Meter: invalid Key Name=\"DISTRICTCOOLING:FACILITY\" - not found.\n   ** Warning ** Output:Meter: invalid Key Name=\"DISTRICTHEATING:FACILITY\" - not found.\n   ** Warning ** Output:Meter:MeterFileOnly requested for \"Electricity:Facility\" (TimeStep), already on \"Output:Meter\". Will report to both eplusout.eso and eplusout.mtr\n   ************* Testing Individual Branch Integrity\n   ************* All Branches passed integrity testing\n   ************* Testing Individual Supply Air Path Integrity\n   ************* All Supply Air Paths passed integrity testing\n   ************* Testing Individual Return Air Path Integrity\n   ************* All Return Air Paths passed integrity testing\n   ************* No node connection errors were found.\n   ************* Beginning Simulation\n   ** Warning ** ElectricEIRChillerModel - CHILLER:ELECTRIC:EIR \"90.1-2013    CHILLER 0\" - Air Cooled Condenser Inlet Temperature below 0C.\n   **   ~~~   ** ... Outdoor Dry-bulb Condition =  -0.37 C. Occurrence info = RUN PERIOD 1, 03/02 07:47 - 07:49\n   ** Warning ** SimHVAC: Maximum iterations (20) exceeded for all HVAC loops, at RUN PERIOD 1, 04/27 17:20 - 17:30\n   **   ~~~   ** The solution for one or more plant systems did not appear to converge\n   **   ~~~   ** ...use Output:Diagnostics,DisplayExtraWarnings; to show more details on each max iteration exceeded.\n   ** Warning ** SimHVAC: Maximum iterations (20) exceeded for all HVAC loops, at RUN PERIOD 1, 12/07 18:20 - 18:30\n   **   ~~~   ** The solution for one or more plant systems did not appear to converge\n   ** Warning ** SimHVAC: Maximum iterations (20) exceeded for all HVAC loops, at RUN PERIOD 1, 12/07 18:25 - 18:27\n   **   ~~~   ** The solution for one or more plant systems did not appear to converge\n   ** Warning ** SimHVAC: Maximum iterations (20) exceeded for all HVAC loops, at RUN PERIOD 1, 12/07 18:27 - 18:30\n   **   ~~~   ** The solution for one or more plant systems did not appear to converge\n   ** Warning ** The resource referenced by LifeCycleCost:UsePriceEscalation= \"U.S. AVG  COMMERCIAL-ELECTRICITY\" has no energy cost. \n   **   ~~~   ** ... It is likely that the wrong resource is used. The resource should match the meter used in Utility:Tariff.\n   ** Warning ** The resource referenced by LifeCycleCost:UsePriceEscalation= \"U.S. AVG  COMMERCIAL-DISTILLATE OIL\" has no energy cost. \n   **   ~~~   ** ... It is likely that the wrong resource is used. The resource should match the meter used in Utility:Tariff.\n   ** Warning ** The resource referenced by LifeCycleCost:UsePriceEscalation= \"U.S. AVG  COMMERCIAL-RESIDUAL OIL\" has no energy cost. \n   **   ~~~   ** ... It is likely that the wrong resource is used. The resource should match the meter used in Utility:Tariff.\n   ** Warning ** The resource referenced by LifeCycleCost:UsePriceEscalation= \"U.S. AVG  COMMERCIAL-NATURAL GAS\" has no energy cost. \n   **   ~~~   ** ... It is likely that the wrong resource is used. The resource should match the meter used in Utility:Tariff.\n   ** Warning ** The resource referenced by LifeCycleCost:UsePriceEscalation= \"U.S. AVG  COMMERCIAL-COAL\" has no energy cost. \n   **   ~~~   ** ... It is likely that the wrong resource is used. The resource should match the meter used in Utility:Tariff.\n   ************* Simulation Error Summary *************\n   ************* There are 4 unused schedules in input.\n   ************* There are 44 unused week schedules in input.\n   ************* There are 28 unused day schedules in input.\n   ************* Use Output:Diagnostics,DisplayUnusedSchedules; to see them.\n   *************\n   ************* ===== Recurring Error Summary =====\n   ************* The following recurring error messages occurred.\n   *************\n   *************  ** Warning ** ElectricEIRChillerModel - CHILLER:ELECTRIC:EIR \"90.1-2013    CHILLER 0\" - Air Cooled Condenser Inlet Temperature below 0C error continues.\n   *************  **   ~~~   **   This error occurred 1 total times;\n   *************  **   ~~~   **   during Warmup 0 times;\n   *************  **   ~~~   **   during Sizing 0 times.\n   *************  **   ~~~   **   Max=-0.366667 [C]  Min=-0.366667 [C]\n   *************\n   *************\n   ************* ===== Final Error Summary =====\n   ************* The following error categories occurred.  Consider correcting or noting.\n   ************* Nominally Unused Constructions\n   ************* ..The nominally unused constructions warning is provided to alert you to potential conditions that can cause\n   ************* ..extra time during simulation. Each construction is calculated by the algorithm indicated in the HeatBalanceAlgorithm\n   ************* ..object. You may remove the constructions indicated (when you use the DisplayExtraWarnings option).\n   *************\n   ************* EnergyPlus Warmup Error Summary. During Warmup: 0 Warning; 0 Severe Errors.\n   ************* EnergyPlus Sizing Error Summary. During Sizing: 4 Warning; 0 Severe Errors.\n   ************* EnergyPlus Completed Successfully-- 25 Warning; 0 Severe Errors; Elapsed Time=00hr 01min 12.77sec\n",
   "file_paths" : [
      "C:/Users/aspeake/Documents/OpenStudio-BuildStock/workflows/singleunit_osw/generated_files",
      "./files",
      "./weather",
      "../../files",
      "../../weather",
      "./"
   ],
   "hash" : "D9A69810",
   "measure_paths" : [ "../../measures", "../../resources/measures" ],
   "started_at" : "20191210T173335Z",
   "steps" : [
      {
         "arguments" : {
            "dst_end_date" : "October 26",
            "dst_start_date" : "April 7",
            "weather_directory" : "../HPXMLtoOpenStudio/weather",
            "weather_file_name" : "USA_IL_Chicago-OHare.Intl.AP.725300_TMY3.epw"
         },
         "measure_dir_name" : "ResidentialLocation",
         "result" : {
            "completed_at" : "20191210T173336Z",
            "measure_class_name" : "SetResidentialEPWFile",
            "measure_display_name" : "Set Residential Location",
            "measure_name" : "set_residential_epw_file",
            "measure_taxonomy" : "Whole Building.Space Types",
            "measure_type" : "ModelMeasure",
            "measure_uid" : "16ac2c0c-6177-4bf2-91a5-1b6e8de4e85b",
            "measure_version_id" : "f89321a2-46dc-44ba-a139-698350046035",
            "measure_version_modified" : "20190701T173021Z",
            "measure_xml_checksum" : "D8922A73",
            "started_at" : "20191210T173335Z",
            "stderr" : "",
            "stdout" : "",
            "step_errors" : [],
            "step_files" : [],
            "step_final_condition" : "The weather file path is 'C:/Users/aspeake/Documents/OpenStudio-BuildStock/resources/measures/HPXMLtoOpenStudio/weather/USA_IL_Chicago-OHare.Intl.AP.725300_TMY3.epw'.",
            "step_info" : [
               "Setting weather file.",
               "Setting site data.",
               "Setting Building America climate zone to Cold.",
               "Setting mains water temperature profile.",
               "Set daylight saving time from 2009-Apr-07 to 2009-Oct-26."
            ],
            "step_result" : "Success",
            "step_values" : [
               {
                  "name" : "weather_directory",
                  "value" : "../HPXMLtoOpenStudio/weather"
               },
               {
                  "name" : "weather_file_name",
                  "value" : "USA_IL_Chicago-OHare.Intl.AP.725300_TMY3.epw"
               },
               {
                  "name" : "dst_start_date",
                  "value" : "April 7"
               },
               {
                  "name" : "dst_end_date",
                  "value" : "October 26"
               }
            ],
            "step_warnings" : []
         }
      },
      {
         "arguments" : {
            "balcony_depth" : "0",
            "corridor_position" : "Double-Loaded Interior",
            "corridor_width" : "10",
            "eaves_depth" : "2",
            "foundation_height" : "8",
            "foundation_type" : "unfinished basement",
            "inset_depth" : "0",
            "inset_position" : "Right",
            "inset_width" : "0",
            "minimal_collapsed" : "false",
            "neighbor_back_offset" : "0",
            "neighbor_front_offset" : "0",
            "neighbor_left_offset" : "12",
            "neighbor_right_offset" : "12",
            "num_bathrooms" : "1.5",
            "num_bedrooms" : "3",
            "num_floors" : "3",
            "num_occupants" : "auto",
            "num_units" : "6",
            "occupants_monthly_sch" : "1.0, 1.0, 1.0, 1.0, 1.0, 1.0, 1.0, 1.0, 1.0, 1.0, 1.0, 1.0",
            "occupants_weekday_sch" : "1.00, 1.00, 1.00, 1.00, 1.00, 1.00, 1.00, 0.88, 0.41, 0.24, 0.24, 0.24, 0.24, 0.24, 0.24, 0.24, 0.29, 0.55, 0.90, 0.90, 0.90, 1.00, 1.00, 1.00",
            "occupants_weekend_sch" : "1.00, 1.00, 1.00, 1.00, 1.00, 1.00, 1.00, 0.88, 0.41, 0.24, 0.24, 0.24, 0.24, 0.24, 0.24, 0.24, 0.29, 0.55, 0.90, 0.90, 0.90, 1.00, 1.00, 1.00",
            "orientation" : "90",
            "unit_aspect_ratio" : "1.8",
            "unit_ffa" : "500",
            "wall_height" : "8"
         },
         "measure_dir_name" : "ResidentialGeometryCreateMultifamily_master",
         "result" : {
            "completed_at" : "20191210T173337Z",
            "measure_class_name" : "CreateResidentialMultifamilyGeometry",
            "measure_display_name" : "Create Residential Multifamily Geometry",
            "measure_name" : "create_residential_multifamily_geometry",
            "measure_taxonomy" : "Envelope.Form",
            "measure_type" : "ModelMeasure",
            "measure_uid" : "9bc07973-98a4-46fc-b643-e280628817c5",
            "measure_version_id" : "57418f4c-8699-4ebe-aa3c-0e709c23ced7",
            "measure_version_modified" : "20190701T173018Z",
            "measure_xml_checksum" : "2AF3A68E",
            "started_at" : "20191210T173336Z",
            "stderr" : "",
            "stdout" : "[openstudio.model.YearDescription] <1> 'UseWeatherFile' is not yet a supported option for YearDescription\n",
            "step_errors" : [],
            "step_files" : [],
            "step_final_condition" : "The building finished with 10 spaces.",
            "step_info" : [
               "The 6-unit building will be modeled using 6 building units.",
               "Unit '0' has been assigned 3 bedroom(s) and 1.5 bathroom(s).",
               "Unit '1' has been assigned 3 bedroom(s) and 1.5 bathroom(s).",
               "Unit '2' has been assigned 3 bedroom(s) and 1.5 bathroom(s).",
               "Unit '3' has been assigned 3 bedroom(s) and 1.5 bathroom(s).",
               "Unit '4' has been assigned 3 bedroom(s) and 1.5 bathroom(s).",
               "Unit '5' has been assigned 3 bedroom(s) and 1.5 bathroom(s).",
               "The building has been assigned 18 bedroom(s) and 9.0 bathroom(s) across 6 unit(s).",
               "unit 1 has been assigned 3.39 occupant(s) for space 'living space'.",
               "unit 2 has been assigned 3.39 occupant(s) for space 'living space|unit 2'.",
               "unit 3 has been assigned 3.39 occupant(s) for space 'living space|unit 3|story 1'.",
               "unit 4 has been assigned 3.39 occupant(s) for space 'living space|unit 4|story 1'.",
               "unit 5 has been assigned 3.39 occupant(s) for space 'living space|unit 5|story 1'.",
               "unit 6 has been assigned 3.39 occupant(s) for space 'living space|unit 6|story 1'.",
               "The building has been assigned 20.34 occupant(s) across 6 unit(s).",
               "Added 8 res eaves.",
               "Added 2 res neighbors shading surfaces.",
               "The building's initial orientation was 0.0 azimuth.",
               "The building's final orientation was 90.0 azimuth."
            ],
            "step_initial_condition" : "The building started with 0 spaces.",
            "step_result" : "Success",
            "step_values" : [
               {
                  "name" : "unit_ffa",
                  "value" : 500
               },
               {
                  "name" : "wall_height",
                  "value" : 8
               },
               {
                  "name" : "num_floors",
                  "value" : 3
               },
               {
                  "name" : "num_units",
                  "value" : 6
               },
               {
                  "name" : "unit_aspect_ratio",
                  "value" : 1.8
               },
               {
                  "name" : "corridor_position",
                  "value" : "Double-Loaded Interior"
               },
               {
                  "name" : "corridor_width",
                  "value" : 10
               },
               {
                  "name" : "inset_width",
                  "value" : 0
               },
               {
                  "name" : "inset_depth",
                  "value" : 0
               },
               {
                  "name" : "inset_position",
                  "value" : "Right"
               },
               {
                  "name" : "balcony_depth",
                  "value" : 0
               },
               {
                  "name" : "foundation_type",
                  "value" : "unfinished basement"
               },
               {
                  "name" : "foundation_height",
                  "value" : 8
               },
               {
                  "name" : "eaves_depth",
                  "value" : 2
               },
               {
                  "name" : "num_bedrooms",
                  "value" : "3"
               },
               {
                  "name" : "num_bathrooms",
                  "value" : "1.5"
               },
               {
                  "name" : "num_occupants",
                  "value" : "auto"
               },
               {
                  "name" : "occupants_weekday_sch",
                  "value" : "1.00, 1.00, 1.00, 1.00, 1.00, 1.00, 1.00, 0.88, 0.41, 0.24, 0.24, 0.24, 0.24, 0.24, 0.24, 0.24, 0.29, 0.55, 0.90, 0.90, 0.90, 1.00, 1.00, 1.00"
               },
               {
                  "name" : "occupants_weekend_sch",
                  "value" : "1.00, 1.00, 1.00, 1.00, 1.00, 1.00, 1.00, 0.88, 0.41, 0.24, 0.24, 0.24, 0.24, 0.24, 0.24, 0.24, 0.29, 0.55, 0.90, 0.90, 0.90, 1.00, 1.00, 1.00"
               },
               {
                  "name" : "occupants_monthly_sch",
                  "value" : "1.0, 1.0, 1.0, 1.0, 1.0, 1.0, 1.0, 1.0, 1.0, 1.0, 1.0, 1.0"
               },
               {
                  "name" : "neighbor_left_offset",
                  "value" : 12
               },
               {
                  "name" : "neighbor_right_offset",
                  "value" : 12
               },
               {
                  "name" : "neighbor_back_offset",
                  "value" : 0
               },
               {
                  "name" : "neighbor_front_offset",
                  "value" : 0
               },
               {
                  "name" : "orientation",
                  "value" : 90
               },
               {
                  "name" : "minimal_collapsed",
                  "value" : false
               }
            ],
            "step_warnings" : []
         }
      },
      {
         "arguments" : {
            "door_area" : "20"
         },
         "measure_dir_name" : "ResidentialGeometryDoorArea",
         "result" : {
            "completed_at" : "20191210T173337Z",
            "measure_class_name" : "CreateResidentialDoorArea",
            "measure_display_name" : "Set Residential Door Area",
            "measure_name" : "create_residential_door_area",
            "measure_taxonomy" : "Envelope.Fenestration",
            "measure_type" : "ModelMeasure",
            "measure_uid" : "901a04ee-99d4-42b3-91e1-b5b97970f441",
            "measure_version_id" : "7128d456-5773-4c86-930c-a409ed3b9ea9",
            "measure_version_modified" : "20190701T173018Z",
            "measure_xml_checksum" : "9C8A26EB",
            "started_at" : "20191210T173337Z",
            "stderr" : "",
            "stdout" : "",
            "step_errors" : [],
            "step_files" : [],
            "step_final_condition" : "The building has been assigned 120.0 ft^2 total door area.",
            "step_info" : [
               "For unit 1 added 20.0 ft^2 door.",
               "For unit 2 added 20.0 ft^2 door.",
               "For unit 3 added 20.0 ft^2 door.",
               "For unit 4 added 20.0 ft^2 door.",
               "For unit 5 added 20.0 ft^2 door.",
               "For unit 6 added 20.0 ft^2 door."
            ],
            "step_result" : "Success",
            "step_values" : [
               {
                  "name" : "door_area",
                  "value" : 20
               }
            ],
            "step_warnings" : []
         }
      },
      {
         "arguments" : {
            "back_skylight_area" : "0",
            "back_window_area" : "0",
            "back_wwr" : "0.15",
            "front_skylight_area" : "0",
            "front_window_area" : "0",
            "front_wwr" : "0.15",
            "left_skylight_area" : "0",
            "left_window_area" : "0",
            "left_wwr" : "0.15",
            "overhang_back_facade" : "false",
            "overhang_depth" : "0",
            "overhang_front_facade" : "false",
            "overhang_left_facade" : "false",
            "overhang_offset" : "0",
            "overhang_right_facade" : "false",
            "right_skylight_area" : "0",
            "right_window_area" : "0",
            "right_wwr" : "0.15",
            "window_aspect_ratio" : "1.333"
         },
         "measure_dir_name" : "ResidentialGeometryWindowSkylightArea",
         "result" : {
            "completed_at" : "20191210T173337Z",
            "measure_class_name" : "SetResidentialWindowSkylightArea",
            "measure_display_name" : "Set Residential Window/Skylight Area",
            "measure_name" : "set_residential_window_skylight_area",
            "measure_taxonomy" : "Envelope.Fenestration",
            "measure_type" : "ModelMeasure",
            "measure_uid" : "d05f5b32-1ad6-4c3d-964a-0dbd49a7fde8",
            "measure_version_id" : "d45b34bc-df3c-4ebc-81e8-a15133972cc7",
            "measure_version_modified" : "20190701T173018Z",
            "measure_xml_checksum" : "9014E219",
            "started_at" : "20191210T173337Z",
            "stderr" : "",
            "stdout" : "",
            "step_errors" : [],
            "step_files" : [],
            "step_final_condition" : "The building has been assigned 552.0 ft^2 total window area, and 0.0 ft^2 total skylight area.",
            "step_info" : [
               "Added 2 window(s), totaling 20.0 ft^2, to Surface 5.",
               "Added 2 window(s), totaling 20.0 ft^2, to Surface 14.",
               "Added 2 window(s), totaling 20.0 ft^2, to Surface 26.",
               "Added 2 window(s), totaling 20.0 ft^2, to Surface 31.",
               "Added 2 window(s), totaling 20.0 ft^2, to Surface 9.",
               "Added 2 window(s), totaling 20.0 ft^2, to Surface 19.",
               "Added 3 window(s), totaling 36.0 ft^2, to Surface 32.",
               "Added 3 window(s), totaling 36.0 ft^2, to Surface 2.",
               "Added 3 window(s), totaling 36.0 ft^2, to Surface 8.",
               "Added 3 window(s), totaling 36.0 ft^2, to Surface 17.",
               "Added 3 window(s), totaling 36.0 ft^2, to Surface 20.",
               "Added 3 window(s), totaling 36.0 ft^2, to Surface 29.",
               "Added 3 window(s), totaling 36.0 ft^2, to Surface 36.",
               "Added 3 window(s), totaling 36.0 ft^2, to Surface 4.",
               "Added 3 window(s), totaling 36.0 ft^2, to Surface 10.",
               "Added 3 window(s), totaling 36.0 ft^2, to Surface 16.",
               "Added 3 window(s), totaling 36.0 ft^2, to Surface 24.",
               "Added 3 window(s), totaling 36.0 ft^2, to Surface 28.",
               "No res overhangs to be added."
            ],
            "step_result" : "Success",
            "step_values" : [
               {
                  "name" : "front_wwr",
                  "value" : 0.14999999999999999
               },
               {
                  "name" : "back_wwr",
                  "value" : 0.14999999999999999
               },
               {
                  "name" : "left_wwr",
                  "value" : 0.14999999999999999
               },
               {
                  "name" : "right_wwr",
                  "value" : 0.14999999999999999
               },
               {
                  "name" : "front_window_area",
                  "value" : 0
               },
               {
                  "name" : "back_window_area",
                  "value" : 0
               },
               {
                  "name" : "left_window_area",
                  "value" : 0
               },
               {
                  "name" : "right_window_area",
                  "value" : 0
               },
               {
                  "name" : "window_aspect_ratio",
                  "value" : 1.333
               },
               {
                  "name" : "overhang_depth",
                  "value" : 0
               },
               {
                  "name" : "overhang_offset",
                  "value" : 0
               },
               {
                  "name" : "overhang_front_facade",
                  "value" : false
               },
               {
                  "name" : "overhang_back_facade",
                  "value" : false
               },
               {
                  "name" : "overhang_left_facade",
                  "value" : false
               },
               {
                  "name" : "overhang_right_facade",
                  "value" : false
               },
               {
                  "name" : "front_skylight_area",
                  "value" : 0
               },
               {
                  "name" : "back_skylight_area",
                  "value" : 0
               },
               {
                  "name" : "left_skylight_area",
                  "value" : 0
               },
               {
                  "name" : "right_skylight_area",
                  "value" : 0
               }
            ],
            "step_warnings" : []
         }
      },
      {
         "arguments" : {
            "ceiling_drywall_thick_in" : "0.5",
            "ceiling_framing_factor" : "0.07",
            "ceiling_ins_thick_in" : "5.47",
            "ceiling_install_grade" : "1",
            "ceiling_joist_height_in" : "3.5",
            "ceiling_r" : "13",
            "has_radiant_barrier" : "false",
            "roof_cavity_ins_thick_in" : "0",
            "roof_cavity_r" : "0",
            "roof_framing_factor" : "0.07",
            "roof_framing_thick_in" : "7.25",
            "roof_install_grade" : "1",
            "roof_osb_thick_in" : "0.75",
            "roof_rigid_r" : "0",
            "roofing_material" : "Asphalt Shingles, Medium"
         },
         "measure_dir_name" : "ResidentialConstructionsUnfinishedAttic",
         "result" : {
            "completed_at" : "20191210T173338Z",
            "measure_class_name" : "ProcessConstructionsUnfinishedAttic",
            "measure_display_name" : "Set Residential Unfinished Attic Constructions",
            "measure_name" : "process_constructions_unfinished_attic",
            "measure_taxonomy" : "Envelope.Opaque",
            "measure_type" : "ModelMeasure",
            "measure_uid" : "235ba3ce-dd83-4287-aa0e-435dc1cbf1a7",
            "measure_version_id" : "8412a1a0-7251-42a2-832d-739109948bdf",
            "measure_version_modified" : "20190701T173017Z",
            "measure_xml_checksum" : "1E963D9C",
            "started_at" : "20191210T173338Z",
            "stderr" : "",
            "stdout" : "",
            "step_errors" : [],
            "step_files" : [],
            "step_info" : [
               "Material 'Asphalt Shingles, Medium' was created.",
               "Material 'RoofSheathing' was created.",
               "Material 'RoofStudAndAirRoof' was created.",
               "Construction 'RoofUnfinUninsExt' was created with 3 materials (Asphalt Shingles, Medium | RoofSheathing | RoofStudAndAirRoof).",
               "Surface 'Surface 46' has been assigned construction 'RoofUnfinUninsExt'.",
               "Surface 'Surface 42' has been assigned construction 'RoofUnfinUninsExt'.",
               "Surface 'Surface 52' has been assigned construction 'RoofUnfinUninsExt'.",
               "Surface 'Surface 60' has been assigned construction 'RoofUnfinUninsExt'."
            ],
            "step_result" : "Success",
            "step_values" : [
               {
                  "name" : "ceiling_r",
                  "value" : 13
               },
               {
                  "name" : "ceiling_install_grade",
                  "value" : "1"
               },
               {
                  "name" : "ceiling_ins_thick_in",
                  "value" : 5.4699999999999998
               },
               {
                  "name" : "ceiling_framing_factor",
                  "value" : 0.070000000000000007
               },
               {
                  "name" : "ceiling_joist_height_in",
                  "value" : 3.5
               },
               {
                  "name" : "ceiling_drywall_thick_in",
                  "value" : 0.5
               },
               {
                  "name" : "roof_cavity_r",
                  "value" : 0
               },
               {
                  "name" : "roof_install_grade",
                  "value" : "1"
               },
               {
                  "name" : "roof_cavity_ins_thick_in",
                  "value" : 0
               },
               {
                  "name" : "roof_framing_factor",
                  "value" : 0.070000000000000007
               },
               {
                  "name" : "roof_framing_thick_in",
                  "value" : 7.25
               },
               {
                  "name" : "roof_osb_thick_in",
                  "value" : 0.75
               },
               {
                  "name" : "roof_rigid_r",
                  "value" : 0
               },
               {
                  "name" : "roofing_material",
                  "value" : "Asphalt Shingles, Medium"
               },
               {
                  "name" : "has_radiant_barrier",
                  "value" : false
               }
            ],
            "step_warnings" : []
         }
      },
      {
         "arguments" : {
            "cavity_depth" : "9.25",
            "cavity_r" : "30",
            "drywall_thick_in" : "0.5",
            "filled_cavity" : "true",
            "framing_factor" : "0.07",
            "install_grade" : "1",
            "osb_thick_in" : "0.75",
            "rigid_r" : "0.0",
            "roofing_material" : "Asphalt Shingles, Medium"
         },
         "measure_dir_name" : "ResidentialConstructionsFinishedRoof",
         "result" : {
            "completed_at" : "20191210T173338Z",
            "measure_class_name" : "ProcessConstructionsFinishedRoof",
            "measure_display_name" : "Set Residential Finished Roof Construction",
            "measure_name" : "process_constructions_finished_roof",
            "measure_taxonomy" : "Envelope.Opaque",
            "measure_type" : "ModelMeasure",
            "measure_uid" : "6349eb9b-6e7e-4ba9-b518-76d2f9f73c79",
            "measure_version_id" : "419ed68e-98f0-4200-99c5-e6277268288d",
            "measure_version_modified" : "20190701T173016Z",
            "measure_xml_checksum" : "1E963D9C",
            "started_at" : "20191210T173338Z",
            "stderr" : "",
            "stdout" : "",
            "step_errors" : [],
            "step_files" : [],
            "step_info" : [
               "Material 'RoofIns' was created.",
               "Material 'Drywall 0.5 in.' was created.",
               "Construction 'RoofFinInsExt' was created with 4 materials (Asphalt Shingles, Medium | RoofSheathing | RoofIns | Drywall 0.5 in.).",
               "Surface 'Surface 35' has been assigned construction 'RoofFinInsExt'.",
               "Surface 'Surface 25' has been assigned construction 'RoofFinInsExt'.",
               "Material 'RoofStudAndAirRoof 1' was created.",
               "Construction 'RoofUnfinUninsExt 1' was created with 3 materials (Asphalt Shingles, Medium | RoofSheathing | RoofStudAndAirRoof 1).",
               "Surface 'Surface 46' has been assigned construction 'RoofUnfinUninsExt 1'.",
               "Surface 'Surface 42' has been assigned construction 'RoofUnfinUninsExt 1'.",
               "Surface 'Surface 52' has been assigned construction 'RoofUnfinUninsExt 1'.",
               "Surface 'Surface 60' has been assigned construction 'RoofUnfinUninsExt 1'.",
               "Removed construction 'RoofUnfinUninsExt' because it was orphaned.",
               "Removed material 'RoofStudAndAirRoof' because it was orphaned."
            ],
            "step_result" : "Success",
            "step_values" : [
               {
                  "name" : "cavity_r",
                  "value" : 30
               },
               {
                  "name" : "install_grade",
                  "value" : "1"
               },
               {
                  "name" : "cavity_depth",
                  "value" : 9.25
               },
               {
                  "name" : "filled_cavity",
                  "value" : true
               },
               {
                  "name" : "framing_factor",
                  "value" : 0.070000000000000007
               },
               {
                  "name" : "drywall_thick_in",
                  "value" : 0.5
               },
               {
                  "name" : "osb_thick_in",
                  "value" : 0.75
               },
               {
                  "name" : "rigid_r",
                  "value" : 0
               },
               {
                  "name" : "roofing_material",
                  "value" : "Asphalt Shingles, Medium"
               }
            ],
            "step_warnings" : []
         }
      },
      {
         "arguments" : {
            "cavity_depth_in" : "3.5",
            "cavity_filled" : "false",
            "cavity_r" : "0",
            "drywall_thick_in" : "0.5",
            "exterior_finish" : "Vinyl, Light",
            "framing_factor" : "0.25",
            "install_grade" : "1",
            "osb_thick_in" : "0.5",
            "rigid_r" : "0.0"
         },
         "measure_dir_name" : "ResidentialConstructionsWallsWoodStud",
         "result" : {
            "completed_at" : "20191210T173338Z",
            "measure_class_name" : "ProcessConstructionsWallsWoodStud",
            "measure_display_name" : "Set Residential Walls - Wood Stud Construction",
            "measure_name" : "process_constructions_walls_wood_stud",
            "measure_taxonomy" : "Envelope.Opaque",
            "measure_type" : "ModelMeasure",
            "measure_uid" : "76193c5c-d1a6-4a57-864a-c8a32e67adcb",
            "measure_version_id" : "8c4c2f94-d284-4745-b94d-471663fbbb82",
            "measure_version_modified" : "20190701T173017Z",
            "measure_xml_checksum" : "1E963D9C",
            "started_at" : "20191210T173338Z",
            "stderr" : "",
            "stdout" : "",
            "step_errors" : [],
            "step_files" : [],
            "step_info" : [
               "Material 'Vinyl, Light' was created.",
               "Material 'WallSheathing' was created.",
               "Material 'WallStudAndCavity' was created.",
               "Construction 'WallExtInsFin' was created with 4 materials (Vinyl, Light | WallSheathing | WallStudAndCavity | Drywall 0.5 in.).",
               "Surface 'Surface 32' has been assigned construction 'WallExtInsFin'.",
               "Surface 'Surface 31' has been assigned construction 'WallExtInsFin'.",
               "Surface 'Surface 36' has been assigned construction 'WallExtInsFin'.",
               "Surface 'Surface 5' has been assigned construction 'WallExtInsFin'.",
               "Surface 'Surface 4' has been assigned construction 'WallExtInsFin'.",
               "Surface 'Surface 2' has been assigned construction 'WallExtInsFin'.",
               "Surface 'Surface 9' has been assigned construction 'WallExtInsFin'.",
               "Surface 'Surface 8' has been assigned construction 'WallExtInsFin'.",
               "Surface 'Surface 10' has been assigned construction 'WallExtInsFin'.",
               "Surface 'Surface 17' has been assigned construction 'WallExtInsFin'.",
               "Surface 'Surface 16' has been assigned construction 'WallExtInsFin'.",
               "Surface 'Surface 14' has been assigned construction 'WallExtInsFin'.",
               "Surface 'Surface 24' has been assigned construction 'WallExtInsFin'.",
               "Surface 'Surface 19' has been assigned construction 'WallExtInsFin'.",
               "Surface 'Surface 20' has been assigned construction 'WallExtInsFin'.",
               "Surface 'Surface 26' has been assigned construction 'WallExtInsFin'.",
               "Surface 'Surface 29' has been assigned construction 'WallExtInsFin'.",
               "Surface 'Surface 28' has been assigned construction 'WallExtInsFin'.",
               "Material 'WallStudAndCavity 1' was created.",
               "Construction 'WallExtUninsUnfin' was created with 3 materials (Vinyl, Light | WallSheathing | WallStudAndCavity 1).",
               "Surface 'Surface 43' has been assigned construction 'WallExtUninsUnfin'.",
               "Surface 'Surface 48' has been assigned construction 'WallExtUninsUnfin'.",
               "Surface 'Surface 40' has been assigned construction 'WallExtUninsUnfin'.",
               "Surface 'Surface 38' has been assigned construction 'WallExtUninsUnfin'.",
               "Surface 'Surface 49' has been assigned construction 'WallExtUninsUnfin'.",
               "Surface 'Surface 54' has been assigned construction 'WallExtUninsUnfin'.",
               "Material 'WallStudAndCavity 2' was created.",
               "Construction 'WallIntFinUninsFin' was created with 3 materials (Vinyl, Light | WallStudAndCavity 2 | Drywall 0.5 in.).",
               "Surface 'Surface 34' has been assigned construction 'WallIntFinUninsFin'.",
               "Surface 'Surface 3' has been assigned construction 'WallIntFinUninsFin'.",
               "Surface 'Surface 11' has been assigned construction 'WallIntFinUninsFin'.",
               "Surface 'Surface 18' has been assigned construction 'WallIntFinUninsFin'.",
               "Surface 'Surface 22' has been assigned construction 'WallIntFinUninsFin'.",
               "Surface 'Surface 30' has been assigned construction 'WallIntFinUninsFin'.",
               "Material 'WallStudAndCavity 3' was created.",
               "Construction 'WallIntUnfinUninsUnfin' was created with 2 materials (Vinyl, Light | WallStudAndCavity 3).",
               "Surface 'Surface 44' has been assigned construction 'WallIntUnfinUninsUnfin'.",
               "Surface 'Surface 45' has been assigned construction 'WallIntUnfinUninsUnfin'.",
               "Surface 'Surface 39' has been assigned construction 'WallIntUnfinUninsUnfin'.",
               "Surface 'Surface 41' has been assigned construction 'WallIntUnfinUninsUnfin'.",
               "Surface 'Surface 50' has been assigned construction 'WallIntUnfinUninsUnfin'.",
               "Surface 'Surface 51' has been assigned construction 'WallIntUnfinUninsUnfin'.",
               "Added internal mass object 'living space|unit 6|story 1 Partition' to space 'living space|unit 6|story 1'",
               "Added internal mass object 'living space Partition' to space 'living space'",
               "Added internal mass object 'living space|unit 2 Partition' to space 'living space|unit 2'",
               "Added internal mass object 'living space|unit 3|story 1 Partition' to space 'living space|unit 3|story 1'",
               "Added internal mass object 'living space|unit 4|story 1 Partition' to space 'living space|unit 4|story 1'",
               "Added internal mass object 'living space|unit 5|story 1 Partition' to space 'living space|unit 5|story 1'",
               "Material 'WallStudAndCavity 4' was created.",
               "Construction 'WallIntFinUninsFin 1' was created with 2 materials (WallStudAndCavity 4 | Drywall 0.5 in.).",
               "InternalMassDefinition 'living space|unit 6|story 1 Partition' has been assigned construction 'WallIntFinUninsFin 1'.",
               "InternalMassDefinition 'living space Partition' has been assigned construction 'WallIntFinUninsFin 1'.",
               "InternalMassDefinition 'living space|unit 2 Partition' has been assigned construction 'WallIntFinUninsFin 1'.",
               "InternalMassDefinition 'living space|unit 3|story 1 Partition' has been assigned construction 'WallIntFinUninsFin 1'.",
               "InternalMassDefinition 'living space|unit 4|story 1 Partition' has been assigned construction 'WallIntFinUninsFin 1'.",
               "InternalMassDefinition 'living space|unit 5|story 1 Partition' has been assigned construction 'WallIntFinUninsFin 1'.",
               "Material 'res furniture material living space|unit 6|story 1' was created.",
               "Construction 'res furniture construction living space|unit 6|story 1' was created with 1 material (res furniture material living space|unit 6|story 1).",
               "InternalMassDefinition 'res furniture mass living space|unit 6|story 1' has been assigned construction 'res furniture construction living space|unit 6|story 1'.",
               "Assigned internal mass object 'res furniture mass living space|unit 6|story 1' to space 'living space|unit 6|story 1'.",
               "Construction 'res furniture construction living space' was created with 1 material (res furniture material living space|unit 6|story 1).",
               "InternalMassDefinition 'res furniture mass living space' has been assigned construction 'res furniture construction living space'.",
               "Assigned internal mass object 'res furniture mass living space' to space 'living space'.",
               "Construction 'res furniture construction living space|unit 2' was created with 1 material (res furniture material living space|unit 6|story 1).",
               "InternalMassDefinition 'res furniture mass living space|unit 2' has been assigned construction 'res furniture construction living space|unit 2'.",
               "Assigned internal mass object 'res furniture mass living space|unit 2' to space 'living space|unit 2'.",
               "Construction 'res furniture construction living space|unit 3|story 1' was created with 1 material (res furniture material living space|unit 6|story 1).",
               "InternalMassDefinition 'res furniture mass living space|unit 3|story 1' has been assigned construction 'res furniture construction living space|unit 3|story 1'.",
               "Assigned internal mass object 'res furniture mass living space|unit 3|story 1' to space 'living space|unit 3|story 1'.",
               "Construction 'res furniture construction living space|unit 4|story 1' was created with 1 material (res furniture material living space|unit 6|story 1).",
               "InternalMassDefinition 'res furniture mass living space|unit 4|story 1' has been assigned construction 'res furniture construction living space|unit 4|story 1'.",
               "Assigned internal mass object 'res furniture mass living space|unit 4|story 1' to space 'living space|unit 4|story 1'.",
               "Construction 'res furniture construction living space|unit 5|story 1' was created with 1 material (res furniture material living space|unit 6|story 1).",
               "InternalMassDefinition 'res furniture mass living space|unit 5|story 1' has been assigned construction 'res furniture construction living space|unit 5|story 1'.",
               "Assigned internal mass object 'res furniture mass living space|unit 5|story 1' to space 'living space|unit 5|story 1'.",
               "Construction 'res furniture construction unfinished basement space' was created with 1 material (res furniture material living space|unit 6|story 1).",
               "InternalMassDefinition 'res furniture mass unfinished basement space' has been assigned construction 'res furniture construction unfinished basement space'.",
               "Assigned internal mass object 'res furniture mass unfinished basement space' to space 'unfinished basement space'."
            ],
            "step_result" : "Success",
            "step_values" : [
               {
                  "name" : "cavity_r",
                  "value" : 0
               },
               {
                  "name" : "install_grade",
                  "value" : "1"
               },
               {
                  "name" : "cavity_depth_in",
                  "value" : 3.5
               },
               {
                  "name" : "cavity_filled",
                  "value" : false
               },
               {
                  "name" : "framing_factor",
                  "value" : 0.25
               },
               {
                  "name" : "drywall_thick_in",
                  "value" : 0.5
               },
               {
                  "name" : "osb_thick_in",
                  "value" : 0.5
               },
               {
                  "name" : "rigid_r",
                  "value" : 0
               },
               {
                  "name" : "exterior_finish",
                  "value" : "Vinyl, Light"
               }
            ],
            "step_warnings" : []
         }
      },
      {
         "arguments" : {
            "ceiling_cavity_r" : "0",
            "ceiling_framing_factor" : "0.13",
            "ceiling_install_grade" : "1",
            "ceiling_joist_height_in" : "9.25",
            "slab_whole_r" : "0",
            "wall_cavity_depth_in" : "0",
            "wall_cavity_r" : "0",
            "wall_drywall_thick_in" : "0.5",
            "wall_filled_cavity" : "true",
            "wall_framing_factor" : "0",
            "wall_ins_height" : "0",
            "wall_install_grade" : "1",
            "wall_rigid_r" : "0"
         },
         "measure_dir_name" : "ResidentialConstructionsUnfinishedBasement",
         "result" : {
            "completed_at" : "20191210T173338Z",
            "measure_class_name" : "ProcessConstructionsUnfinishedBasement",
            "measure_display_name" : "Set Residential Unfinished Basement Constructions",
            "measure_name" : "process_constructions_unfinished_basement",
            "measure_taxonomy" : "Envelope.Opaque",
            "measure_type" : "ModelMeasure",
            "measure_uid" : "ebc21070-2d4b-4a2a-bd15-f18bf3e77b49",
            "measure_version_id" : "4cf07e54-e416-4161-bb58-757e7030b2b1",
            "measure_version_modified" : "20190701T173017Z",
            "measure_xml_checksum" : "1E963D9C",
            "started_at" : "20191210T173338Z",
            "stderr" : "",
            "stdout" : "",
            "step_errors" : [],
            "step_files" : [],
            "step_info" : [
               "Material 'Concrete 8.0 in.' was created.",
               "Construction 'WallFndGrndUnfinB' was created with 2 materials (Concrete 8.0 in. | Drywall 0.5 in.).",
               "Surface 'Surface 64' has been assigned construction 'WallFndGrndUnfinB'.",
               "Surface 'Surface 65' has been assigned construction 'WallFndGrndUnfinB'.",
               "Surface 'Surface 62' has been assigned construction 'WallFndGrndUnfinB'.",
               "Material 'Concrete 4.0 in.' was created.",
               "Construction 'FloorFndGrndUnfinB' was created with 1 material (Concrete 4.0 in.).",
               "Surface 'Surface 61' has been assigned construction 'FloorFndGrndUnfinB'.",
               "Construction 'WallFndGrndUnfinB 1' was created with 2 materials (Concrete 8.0 in. | Drywall 0.5 in.).",
               "Surface 'Surface 70' has been assigned construction 'WallFndGrndUnfinB 1'.",
               "Surface 'Surface 68' has been assigned construction 'WallFndGrndUnfinB 1'.",
               "Surface 'Surface 69' has been assigned construction 'WallFndGrndUnfinB 1'.",
               "Construction 'FloorFndGrndUnfinB 1' was created with 1 material (Concrete 4.0 in.).",
               "Surface 'Surface 67' has been assigned construction 'FloorFndGrndUnfinB 1'.",
               "Construction 'WallFndGrndUnfinB 2' was created with 2 materials (Concrete 8.0 in. | Drywall 0.5 in.).",
               "Surface 'Surface 58' has been assigned construction 'WallFndGrndUnfinB 2'.",
               "Surface 'Surface 56' has been assigned construction 'WallFndGrndUnfinB 2'.",
               "Construction 'FloorFndGrndUnfinB 2' was created with 1 material (Concrete 4.0 in.).",
               "Surface 'Surface 55' has been assigned construction 'FloorFndGrndUnfinB 2'.",
               "Material 'FloorIns' was created.",
               "Material 'Wood Floor' was created.",
               "Material 'Floor Covering' was created.",
               "Construction 'FloorUnfinBInsFin' was created with 4 materials (FloorIns | RoofSheathing | Wood Floor | Floor Covering).",
               "Surface 'Surface 72' has been assigned construction 'FloorUnfinBInsFin'.",
               "Construction 'FloorUnfinBInsFin Reversed' was created with 4 materials (Floor Covering | Wood Floor | RoofSheathing | FloorIns).",
               "Surface 'Surface 7' has been assigned construction 'FloorUnfinBInsFin Reversed'.",
               "Surface 'Surface 66' has been assigned construction 'FloorUnfinBInsFin'.",
               "Surface 'Surface 1' has been assigned construction 'FloorUnfinBInsFin Reversed'."
            ],
            "step_result" : "Success",
            "step_values" : [
               {
                  "name" : "wall_ins_height",
                  "value" : 0
               },
               {
                  "name" : "wall_cavity_r",
                  "value" : 0
               },
               {
                  "name" : "wall_install_grade",
                  "value" : "1"
               },
               {
                  "name" : "wall_cavity_depth_in",
                  "value" : 0
               },
               {
                  "name" : "wall_filled_cavity",
                  "value" : true
               },
               {
                  "name" : "wall_framing_factor",
                  "value" : 0
               },
               {
                  "name" : "wall_rigid_r",
                  "value" : 0
               },
               {
                  "name" : "wall_drywall_thick_in",
                  "value" : 0.5
               },
               {
                  "name" : "ceiling_cavity_r",
                  "value" : 0
               },
               {
                  "name" : "ceiling_install_grade",
                  "value" : "1"
               },
               {
                  "name" : "ceiling_framing_factor",
                  "value" : 0.13
               },
               {
                  "name" : "ceiling_joist_height_in",
                  "value" : 9.25
               },
               {
                  "name" : "slab_whole_r",
                  "value" : 0
               }
            ],
            "step_warnings" : []
         }
      },
      {
         "arguments" : {
            "cavity_r" : "0",
            "framing_factor" : "0.13",
            "install_grade" : "1",
            "joist_height_in" : "5.5"
         },
         "measure_dir_name" : "ResidentialConstructionsFloors",
         "result" : {
            "completed_at" : "20191210T173338Z",
            "measure_class_name" : "ProcessConstructionsFloors",
            "measure_display_name" : "Set Residential Floor Construction",
            "measure_name" : "process_constructions_floors",
            "measure_taxonomy" : "Envelope.Opaque",
            "measure_type" : "ModelMeasure",
            "measure_uid" : "65e577ab-327e-4afa-af30-0f6b4e6b1ebf",
            "measure_version_id" : "54db01d7-8cb4-4d3c-bcff-f911ef246735",
            "measure_version_modified" : "20190701T173017Z",
            "measure_xml_checksum" : "1E963D9C",
            "started_at" : "20191210T173338Z",
            "stderr" : "",
            "stdout" : "",
            "step_errors" : [],
            "step_files" : [],
            "step_info" : [
               "Material 'FloorFinStudAndAirFloor' was created.",
               "Construction 'FloorFinUninsFin' was created with 5 materials (Drywall 0.5 in. | FloorFinStudAndAirFloor | RoofSheathing | Wood Floor | Floor Covering).",
               "Surface 'Surface 33' has been assigned construction 'FloorFinUninsFin'.",
               "Construction 'FloorFinUninsFin Reversed' was created with 5 materials (Floor Covering | Wood Floor | RoofSheathing | FloorFinStudAndAirFloor | Drywall 0.5 in.).",
               "Surface 'Surface 23' has been assigned construction 'FloorFinUninsFin Reversed'.",
               "Surface 'Surface 15' has been assigned construction 'FloorFinUninsFin'.",
               "Surface 'Surface 6' has been assigned construction 'FloorFinUninsFin Reversed'.",
               "Surface 'Surface 21' has been assigned construction 'FloorFinUninsFin'.",
               "Surface 'Surface 12' has been assigned construction 'FloorFinUninsFin Reversed'.",
               "Surface 'Surface 27' has been assigned construction 'FloorFinUninsFin'.",
               "Surface 'Surface 13' has been assigned construction 'FloorFinUninsFin Reversed'.",
               "Material 'FloorFinStudAndAirFloor 1' was created.",
               "Construction 'FloorUnfinUninsUnfin' was created with 2 materials (FloorFinStudAndAirFloor 1 | RoofSheathing).",
               "Surface 'Surface 47' has been assigned construction 'FloorUnfinUninsUnfin'.",
               "Surface 'Surface 37' has been assigned construction 'FloorUnfinUninsUnfin'.",
               "Surface 'Surface 53' has been assigned construction 'FloorUnfinUninsUnfin'."
            ],
            "step_result" : "Success",
            "step_values" : [
               {
                  "name" : "cavity_r",
                  "value" : 0
               },
               {
                  "name" : "install_grade",
                  "value" : "1"
               },
               {
                  "name" : "framing_factor",
                  "value" : 0.13
               },
               {
                  "name" : "joist_height_in",
                  "value" : 5.5
               }
            ],
            "step_warnings" : []
         }
      },
      {
         "arguments" : {
            "skylight_cool_shade_mult" : "0.7",
            "skylight_heat_shade_mult" : "0.7",
            "skylight_shgc" : "0.3",
            "skylight_ufactor" : "0.37",
            "window_cool_shade_mult" : "0.7",
            "window_heat_shade_mult" : "0.7",
            "window_shgc" : "0.63",
            "window_ufactor" : "0.84"
         },
         "measure_dir_name" : "ResidentialConstructionsWindowsSkylights",
         "result" : {
            "completed_at" : "20191210T173339Z",
            "measure_class_name" : "ProcessConstructionsWindowsSkylights",
            "measure_display_name" : "Set Residential Window/Skylight Construction",
            "measure_name" : "process_constructions_windows_skylights",
            "measure_taxonomy" : "Envelope.Fenestration",
            "measure_type" : "ModelMeasure",
            "measure_uid" : "648dc42f-f079-4d97-913e-6dc3e19560b1",
            "measure_version_id" : "486a60e7-1b14-4891-bf2f-2361aa7bec0c",
            "measure_version_modified" : "20190701T173018Z",
            "measure_xml_checksum" : "6FAFA9DE",
            "started_at" : "20191210T173338Z",
            "stderr" : "",
            "stdout" : "[openstudio.model.YearDescription] <1> 'UseWeatherFile' is not yet a supported option for YearDescription\n",
            "step_errors" : [],
            "step_files" : [],
            "step_final_condition" : "All windows and skylights have been assigned constructions.",
            "step_info" : [
               "Material 'WindowMaterial' was created.",
               "Construction 'WindowConstruction' was created with 1 material (WindowMaterial).",
               "SubSurface 'Surface 36 - Window 2' has been assigned construction 'WindowConstruction'.",
               "SubSurface 'Surface 9 - Window 2' has been assigned construction 'WindowConstruction'.",
               "SubSurface 'Surface 17 - Window 2' has been assigned construction 'WindowConstruction'.",
               "SubSurface 'Surface 4 - Window 2' has been assigned construction 'WindowConstruction'.",
               "SubSurface 'Surface 26 - Window 1' has been assigned construction 'WindowConstruction'.",
               "SubSurface 'Surface 5 - Window 1' has been assigned construction 'WindowConstruction'.",
               "SubSurface 'Surface 4 - Window 3' has been assigned construction 'WindowConstruction'.",
               "SubSurface 'Surface 5 - Window 2' has been assigned construction 'WindowConstruction'.",
               "SubSurface 'Surface 14 - Window 1' has been assigned construction 'WindowConstruction'.",
               "SubSurface 'Surface 32 - Window 3' has been assigned construction 'WindowConstruction'.",
               "SubSurface 'Surface 14 - Window 2' has been assigned construction 'WindowConstruction'.",
               "SubSurface 'Surface 26 - Window 2' has been assigned construction 'WindowConstruction'.",
               "SubSurface 'Surface 29 - Window 3' has been assigned construction 'WindowConstruction'.",
               "SubSurface 'Surface 31 - Window 1' has been assigned construction 'WindowConstruction'.",
               "SubSurface 'Surface 16 - Window 3' has been assigned construction 'WindowConstruction'.",
               "SubSurface 'Surface 20 - Window 3' has been assigned construction 'WindowConstruction'.",
               "SubSurface 'Surface 31 - Window 2' has been assigned construction 'WindowConstruction'.",
               "SubSurface 'Surface 9 - Window 1' has been assigned construction 'WindowConstruction'.",
               "SubSurface 'Surface 24 - Window 1' has been assigned construction 'WindowConstruction'.",
               "SubSurface 'Surface 19 - Window 1' has been assigned construction 'WindowConstruction'.",
               "SubSurface 'Surface 19 - Window 2' has been assigned construction 'WindowConstruction'.",
               "SubSurface 'Surface 36 - Window 1' has been assigned construction 'WindowConstruction'.",
               "SubSurface 'Surface 32 - Window 1' has been assigned construction 'WindowConstruction'.",
               "SubSurface 'Surface 32 - Window 2' has been assigned construction 'WindowConstruction'.",
               "SubSurface 'Surface 2 - Window 1' has been assigned construction 'WindowConstruction'.",
               "SubSurface 'Surface 28 - Window 3' has been assigned construction 'WindowConstruction'.",
               "SubSurface 'Surface 29 - Window 1' has been assigned construction 'WindowConstruction'.",
               "SubSurface 'Surface 2 - Window 2' has been assigned construction 'WindowConstruction'.",
               "SubSurface 'Surface 2 - Window 3' has been assigned construction 'WindowConstruction'.",
               "SubSurface 'Surface 8 - Window 1' has been assigned construction 'WindowConstruction'.",
               "SubSurface 'Surface 8 - Window 2' has been assigned construction 'WindowConstruction'.",
               "SubSurface 'Surface 8 - Window 3' has been assigned construction 'WindowConstruction'.",
               "SubSurface 'Surface 16 - Window 2' has been assigned construction 'WindowConstruction'.",
               "SubSurface 'Surface 17 - Window 1' has been assigned construction 'WindowConstruction'.",
               "SubSurface 'Surface 17 - Window 3' has been assigned construction 'WindowConstruction'.",
               "SubSurface 'Surface 20 - Window 1' has been assigned construction 'WindowConstruction'.",
               "SubSurface 'Surface 20 - Window 2' has been assigned construction 'WindowConstruction'.",
               "SubSurface 'Surface 29 - Window 2' has been assigned construction 'WindowConstruction'.",
               "SubSurface 'Surface 36 - Window 3' has been assigned construction 'WindowConstruction'.",
               "SubSurface 'Surface 4 - Window 1' has been assigned construction 'WindowConstruction'.",
               "SubSurface 'Surface 10 - Window 1' has been assigned construction 'WindowConstruction'.",
               "SubSurface 'Surface 10 - Window 2' has been assigned construction 'WindowConstruction'.",
               "SubSurface 'Surface 28 - Window 2' has been assigned construction 'WindowConstruction'.",
               "SubSurface 'Surface 10 - Window 3' has been assigned construction 'WindowConstruction'.",
               "SubSurface 'Surface 16 - Window 1' has been assigned construction 'WindowConstruction'.",
               "SubSurface 'Surface 24 - Window 2' has been assigned construction 'WindowConstruction'.",
               "SubSurface 'Surface 24 - Window 3' has been assigned construction 'WindowConstruction'.",
               "SubSurface 'Surface 28 - Window 1' has been assigned construction 'WindowConstruction'.",
               "Construction and interior shades added to 48 window(s)."
            ],
            "step_result" : "Success",
            "step_values" : [
               {
                  "name" : "window_ufactor",
                  "value" : 0.83999999999999997
               },
               {
                  "name" : "window_shgc",
                  "value" : 0.63
               },
               {
                  "name" : "window_heat_shade_mult",
                  "value" : 0.69999999999999996
               },
               {
                  "name" : "window_cool_shade_mult",
                  "value" : 0.69999999999999996
               },
               {
                  "name" : "skylight_ufactor",
                  "value" : 0.37
               },
               {
                  "name" : "skylight_shgc",
                  "value" : 0.29999999999999999
               },
               {
                  "name" : "skylight_heat_shade_mult",
                  "value" : 0.69999999999999996
               },
               {
                  "name" : "skylight_cool_shade_mult",
                  "value" : 0.69999999999999996
               }
            ],
            "step_warnings" : []
         }
      },
      {
         "arguments" : {
            "ufactor" : "0.2"
         },
         "measure_dir_name" : "ResidentialConstructionsDoors",
         "result" : {
            "completed_at" : "20191210T173339Z",
            "measure_class_name" : "ProcessConstructionsDoors",
            "measure_display_name" : "Set Residential Door Construction",
            "measure_name" : "process_constructions_doors",
            "measure_taxonomy" : "Envelope.Fenestration",
            "measure_type" : "ModelMeasure",
            "measure_uid" : "b78f10fa-b38d-4de2-86e9-344a78e68847",
            "measure_version_id" : "647705a9-6666-4f9f-ba74-af84a86c18ba",
            "measure_version_modified" : "20190701T173016Z",
            "measure_xml_checksum" : "6FAFA9DE",
            "started_at" : "20191210T173339Z",
            "stderr" : "",
            "stdout" : "",
            "step_errors" : [],
            "step_files" : [],
            "step_info" : [
               "Material 'DoorMaterial' was created.",
               "Construction 'UninsDoor' was created with 1 material (DoorMaterial).",
               "SubSurface 'unit 6 - Surface 50 - Door' has been assigned construction 'UninsDoor'.",
               "SubSurface 'unit 1 - Surface 41 - Door' has been assigned construction 'UninsDoor'.",
               "SubSurface 'unit 2 - Surface 39 - Door' has been assigned construction 'UninsDoor'.",
               "SubSurface 'unit 4 - Surface 44 - Door' has been assigned construction 'UninsDoor'.",
               "SubSurface 'unit 3 - Surface 45 - Door' has been assigned construction 'UninsDoor'.",
               "SubSurface 'unit 5 - Surface 51 - Door' has been assigned construction 'UninsDoor'."
            ],
            "step_result" : "Success",
            "step_values" : [
               {
                  "name" : "ufactor",
                  "value" : 0.20000000000000001
               }
            ],
            "step_warnings" : []
         }
      },
      {
         "arguments" : {
            "capacity" : "40",
            "energy_factor" : "0.59",
            "fuel_type" : "gas",
            "location" : "auto",
            "offcyc_power" : "0",
            "oncyc_power" : "0",
            "recovery_efficiency" : "0.76",
            "setpoint_temp" : "125",
            "tank_volume" : "auto"
         },
         "measure_dir_name" : "ResidentialHotWaterHeaterTank",
         "result" : {
            "completed_at" : "20191210T173339Z",
            "measure_class_name" : "ResidentialHotWaterHeaterTank",
            "measure_display_name" : "Set Residential Tank Water Heater",
            "measure_name" : "residential_hot_water_heater_tank",
            "measure_taxonomy" : "Service Water Heating.Water Heating",
            "measure_type" : "ModelMeasure",
            "measure_uid" : "0f2214ac-12ca-4350-9942-8d1fb1277608",
            "measure_version_id" : "53059d79-5aa9-4639-8ca5-4a452b78b78b",
            "measure_version_modified" : "20190701T173018Z",
            "measure_xml_checksum" : "9882CBDB",
            "started_at" : "20191210T173339Z",
            "stderr" : "",
            "stdout" : "",
            "step_errors" : [],
            "step_files" : [],
            "step_final_condition" : "Water heater 'res wh' added to plant loop 'Domestic Hot Water Loop', with a capacity of 40.0 kBtu/hr and an actual tank volume of 28.5 gal.\nWater heater 'res wh|unit 4' added to plant loop 'Domestic Hot Water Loop|unit 4', with a capacity of 40.0 kBtu/hr and an actual tank volume of 28.5 gal.\nWater heater 'res wh|unit 2' added to plant loop 'Domestic Hot Water Loop|unit 2', with a capacity of 40.0 kBtu/hr and an actual tank volume of 28.5 gal.\nWater heater 'res wh|unit 6' added to plant loop 'Domestic Hot Water Loop|unit 6', with a capacity of 40.0 kBtu/hr and an actual tank volume of 28.5 gal.\nWater heater 'res wh|unit 3' added to plant loop 'Domestic Hot Water Loop|unit 3', with a capacity of 40.0 kBtu/hr and an actual tank volume of 28.5 gal.\nWater heater 'res wh|unit 5' added to plant loop 'Domestic Hot Water Loop|unit 5', with a capacity of 40.0 kBtu/hr and an actual tank volume of 28.5 gal.",
            "step_info" : [
               "A new plant loop for DHW will be added to the model",
               "A new plant loop for DHW will be added to the model",
               "A new plant loop for DHW will be added to the model",
               "A new plant loop for DHW will be added to the model",
               "A new plant loop for DHW will be added to the model",
               "A new plant loop for DHW will be added to the model"
            ],
            "step_initial_condition" : "No water heater model currently exists",
            "step_result" : "Success",
            "step_values" : [
               {
                  "name" : "fuel_type",
                  "value" : "gas"
               },
               {
                  "name" : "tank_volume",
                  "value" : "auto"
               },
               {
                  "name" : "setpoint_temp",
                  "value" : 125
               },
               {
                  "name" : "location",
                  "value" : "auto"
               },
               {
                  "name" : "capacity",
                  "value" : "40"
               },
               {
                  "name" : "energy_factor",
                  "value" : "0.59"
               },
               {
                  "name" : "recovery_efficiency",
                  "value" : 0.76000000000000001
               },
               {
                  "name" : "offcyc_power",
                  "value" : 0
               },
               {
                  "name" : "oncyc_power",
                  "value" : 0
               }
            ],
            "step_warnings" : []
         }
      },
      {
         "arguments" : {
            "bath_mult" : "1.0",
            "plant_loop" : "auto",
            "schedule_day_shift" : "170",
            "shower_mult" : "1.0",
            "sink_mult" : "1.0"
         },
         "measure_dir_name" : "ResidentialHotWaterFixtures",
         "result" : {
            "completed_at" : "20191210T173340Z",
            "measure_class_name" : "ResidentialHotWaterFixtures",
            "measure_display_name" : "Set Residential Hot Water Fixtures",
            "measure_name" : "residential_hot_water_fixtures",
            "measure_taxonomy" : "Service Water Heating.Water Use",
            "measure_type" : "ModelMeasure",
            "measure_uid" : "6159fd36-6bfa-4907-9200-9cb852d50799",
            "measure_version_id" : "0bd23264-4169-4c8b-8787-60ced4bea1aa",
            "measure_version_modified" : "20190701T173018Z",
            "measure_xml_checksum" : "A6ACD89C",
            "started_at" : "20191210T173339Z",
            "stderr" : "",
            "stdout" : "[openstudio.model.YearDescription] <1> 'UseWeatherFile' is not yet a supported option for YearDescription\n[openstudio.model.YearDescription] <1> 'UseWeatherFile' is not yet a supported option for YearDescription\n[openstudio.model.YearDescription] <1> 'UseWeatherFile' is not yet a supported option for YearDescription\n[openstudio.model.YearDescription] <1> 'UseWeatherFile' is not yet a supported option for YearDescription\n[openstudio.model.YearDescription] <1> 'UseWeatherFile' is not yet a supported option for YearDescription\n[openstudio.model.YearDescription] <1> 'UseWeatherFile' is not yet a supported option for YearDescription\n[openstudio.model.YearDescription] <1> 'UseWeatherFile' is not yet a supported option for YearDescription\n[openstudio.model.YearDescription] <1> 'UseWeatherFile' is not yet a supported option for YearDescription\n[openstudio.model.YearDescription] <1> 'UseWeatherFile' is not yet a supported option for YearDescription\n[openstudio.model.YearDescription] <1> 'UseWeatherFile' is not yet a supported option for YearDescription\n[openstudio.model.YearDescription] <1> 'UseWeatherFile' is not yet a supported option for YearDescription\n[openstudio.model.YearDescription] <1> 'UseWeatherFile' is not yet a supported option for YearDescription\n[openstudio.model.YearDescription] <1> 'UseWeatherFile' is not yet a supported option for YearDescription\n[openstudio.model.YearDescription] <1> 'UseWeatherFile' is not yet a supported option for YearDescription\n[openstudio.model.YearDescription] <1> 'UseWeatherFile' is not yet a supported option for YearDescription\n[openstudio.model.YearDescription] <1> 'UseWeatherFile' is not yet a supported option for YearDescription\n[openstudio.model.YearDescription] <1> 'UseWeatherFile' is not yet a supported option for YearDescription\n[openstudio.model.YearDescription] <1> 'UseWeatherFile' is not yet a supported option for YearDescription\n",
            "step_errors" : [],
            "step_files" : [],
            "step_final_condition" : "The building has been assigned shower, sink, and bath fixtures drawing a total of 360.0 gal/day across 6 units.",
            "step_info" : [
               "Shower, sinks, and bath fixtures drawing 28.0, 25.0, and 7.0 gal/day respectively have been added to plant loop 'Domestic Hot Water Loop' and assigned to space 'living space'.",
               "Shower, sinks, and bath fixtures drawing 28.0, 25.0, and 7.0 gal/day respectively have been added to plant loop 'Domestic Hot Water Loop|unit 2' and assigned to space 'living space|unit 2'.",
               "Shower, sinks, and bath fixtures drawing 28.0, 25.0, and 7.0 gal/day respectively have been added to plant loop 'Domestic Hot Water Loop|unit 3' and assigned to space 'living space|unit 3|story 1'.",
               "Shower, sinks, and bath fixtures drawing 28.0, 25.0, and 7.0 gal/day respectively have been added to plant loop 'Domestic Hot Water Loop|unit 4' and assigned to space 'living space|unit 4|story 1'.",
               "Shower, sinks, and bath fixtures drawing 28.0, 25.0, and 7.0 gal/day respectively have been added to plant loop 'Domestic Hot Water Loop|unit 5' and assigned to space 'living space|unit 5|story 1'.",
               "Shower, sinks, and bath fixtures drawing 28.0, 25.0, and 7.0 gal/day respectively have been added to plant loop 'Domestic Hot Water Loop|unit 6' and assigned to space 'living space|unit 6|story 1'."
            ],
            "step_result" : "Success",
            "step_values" : [
               {
                  "name" : "shower_mult",
                  "value" : 1
               },
               {
                  "name" : "sink_mult",
                  "value" : 1
               },
               {
                  "name" : "bath_mult",
                  "value" : 1
               },
               {
                  "name" : "plant_loop",
                  "value" : "auto"
               },
               {
                  "name" : "schedule_day_shift",
                  "value" : 170
               }
            ],
            "step_warnings" : []
         }
      },
      {
         "arguments" : {
            "dist_ins" : "0",
            "dist_layout" : "trunk and branch",
            "pipe_mat" : "copper",
            "recirc_type" : "none",
            "space" : "interior"
         },
         "measure_dir_name" : "ResidentialHotWaterDistribution",
         "result" : {
            "completed_at" : "20191210T173341Z",
            "measure_class_name" : "ResidentialHotWaterDistribution",
            "measure_display_name" : "Set Residential Hot Water Distribution",
            "measure_name" : "residential_hot_water_distribution",
            "measure_taxonomy" : "Service Water Heating.Distribution",
            "measure_type" : "ModelMeasure",
            "measure_uid" : "4615ccb7-3ce5-4627-b7c2-a7fea9c4af87",
            "measure_version_id" : "065b4593-563f-4fcb-a8d3-3b92d07bfec6",
            "measure_version_modified" : "20190701T173018Z",
            "measure_xml_checksum" : "D2231FB9",
            "started_at" : "20191210T173341Z",
            "stderr" : "",
            "stdout" : "[openstudio.model.YearDescription] <1> 'UseWeatherFile' is not yet a supported option for YearDescription\n[openstudio.model.YearDescription] <1> 'UseWeatherFile' is not yet a supported option for YearDescription\n[openstudio.model.YearDescription] <1> 'UseWeatherFile' is not yet a supported option for YearDescription\n[openstudio.model.YearDescription] <1> 'UseWeatherFile' is not yet a supported option for YearDescription\n[openstudio.model.YearDescription] <1> 'UseWeatherFile' is not yet a supported option for YearDescription\n[openstudio.model.YearDescription] <1> 'UseWeatherFile' is not yet a supported option for YearDescription\n",
            "step_errors" : [],
            "step_files" : [],
            "step_final_condition" : "The building has been assigned DHW distribution systems across 6 units.",
            "step_info" : [
               "A new copper, trunk and branch DHW distribution system has been assigned to the location interior of the home.",
               "A new copper, trunk and branch DHW distribution system has been assigned to the location interior of the home.",
               "A new copper, trunk and branch DHW distribution system has been assigned to the location interior of the home.",
               "A new copper, trunk and branch DHW distribution system has been assigned to the location interior of the home.",
               "A new copper, trunk and branch DHW distribution system has been assigned to the location interior of the home.",
               "A new copper, trunk and branch DHW distribution system has been assigned to the location interior of the home."
            ],
            "step_result" : "Success",
            "step_values" : [
               {
                  "name" : "pipe_mat",
                  "value" : "copper"
               },
               {
                  "name" : "dist_layout",
                  "value" : "trunk and branch"
               },
               {
                  "name" : "space",
                  "value" : "interior"
               },
               {
                  "name" : "recirc_type",
                  "value" : "none"
               },
               {
                  "name" : "dist_ins",
                  "value" : 0
               }
            ],
            "step_warnings" : []
         }
      },
      {
         "arguments" : {
            "central_boiler_fuel_type" : "gas",
            "fan_coil_heating" : "true"
         },
         "measure_dir_name" : "ResidentialHVACCentralSystemFanCoil",
         "result" : {
            "completed_at" : "20191210T173350Z",
            "measure_class_name" : "ProcessCentralSystemFanCoil",
            "measure_display_name" : "ResidentialHVACCentralSystemFanCoil",
            "measure_name" : "process_central_system_fan_coil",
            "measure_taxonomy" : "HVAC.Whole System",
            "measure_type" : "ModelMeasure",
            "measure_uid" : "76aec197-3459-4562-8f74-4741271d9d2f",
            "measure_version_id" : "d3ba10bd-dea0-4bde-9a20-812f2d5fd559",
            "measure_version_modified" : "20190701T173020Z",
            "measure_xml_checksum" : "ED6112BA",
            "started_at" : "20191210T173341Z",
            "stderr" : "",
            "stdout" : "",
            "step_errors" : [],
            "step_files" : [],
            "step_info" : [
               "Added 'Hot Water Loop' to model.",
               "Added 'Chilled Water Loop' to model.",
               "Added 'living zone FCU' onto 'Hot Water Loop' and 'Chilled Water Loop' for 'unit 1'.",
               "Added 'living zone|unit 2 FCU' onto 'Hot Water Loop' and 'Chilled Water Loop' for 'unit 2'.",
               "Added 'living zone|unit 3 FCU' onto 'Hot Water Loop' and 'Chilled Water Loop' for 'unit 3'.",
               "Added 'living zone|unit 4 FCU' onto 'Hot Water Loop' and 'Chilled Water Loop' for 'unit 4'.",
               "Added 'living zone|unit 5 FCU' onto 'Hot Water Loop' and 'Chilled Water Loop' for 'unit 5'.",
               "Added 'living zone|unit 6 FCU' onto 'Hot Water Loop' and 'Chilled Water Loop' for 'unit 6'."
            ],
            "step_result" : "Success",
            "step_values" : [
               {
                  "name" : "fan_coil_heating",
                  "value" : true
               },
               {
                  "name" : "central_boiler_fuel_type",
                  "value" : "gas"
               }
            ],
            "step_warnings" : []
         }
      },
      {
         "arguments" : {
            "season_end_month" : "Dec",
            "season_start_month" : "Jan",
            "use_auto_season" : "false",
            "weekday_offset_magnitude" : "0",
            "weekday_offset_schedule" : "0,0,0,0,0,0,0,0,0,0,0,0,0,0,0,0,0,0,0,0,0,0,0,0",
            "weekday_setpoint" : "70",
            "weekend_offset_magnitude" : "0",
            "weekend_offset_schedule" : "0,0,0,0,0,0,0,0,0,0,0,0,0,0,0,0,0,0,0,0,0,0,0,0",
            "weekend_setpoint" : "70"
         },
         "measure_dir_name" : "ResidentialHVACHeatingSetpoints",
         "result" : {
            "completed_at" : "20191210T173351Z",
            "measure_class_name" : "ProcessHeatingSetpoints",
            "measure_display_name" : "Set Residential Heating Setpoints and Schedules",
            "measure_name" : "process_heating_setpoints",
            "measure_taxonomy" : "HVAC.HVAC Controls",
            "measure_type" : "ModelMeasure",
            "measure_uid" : "2b167665-f760-462d-8c9d-1d909da7b628",
            "measure_version_id" : "f62a0560-3fbd-4e23-bfc3-118d154029f4",
            "measure_version_modified" : "20190701T173020Z",
            "measure_xml_checksum" : "2C877DEB",
            "started_at" : "20191210T173350Z",
            "stderr" : "",
            "stdout" : "[openstudio.model.YearDescription] <1> 'UseWeatherFile' is not yet a supported option for YearDescription\n[openstudio.model.YearDescription] <1> 'UseWeatherFile' is not yet a supported option for YearDescription\n[openstudio.model.YearDescription] <1> 'UseWeatherFile' is not yet a supported option for YearDescription\n",
            "step_errors" : [],
            "step_files" : [],
            "step_info" : [
               "Created new thermostat living zone temperature setpoint for living zone.",
               "Set a dummy cooling setpoint schedule for living zone temperature setpoint.",
               "Set the heating setpoint schedule for living zone temperature setpoint.",
[...]
               },
               {
                  "name" : "bathroom_exhaust_hour",
                  "value" : 3
               },
               {
                  "name" : "clothes_dryer_exhaust",
                  "value" : 100
               },
               {
                  "name" : "nat_vent_htg_offset",
                  "value" : 1
               },
               {
                  "name" : "nat_vent_clg_offset",
                  "value" : 1
               },
               {
                  "name" : "nat_vent_ovlp_offset",
                  "value" : 1
               },
               {
                  "name" : "nat_vent_htg_season",
                  "value" : true
               },
               {
                  "name" : "nat_vent_clg_season",
                  "value" : true
               },
               {
                  "name" : "nat_vent_ovlp_season",
                  "value" : true
               },
               {
                  "name" : "nat_vent_num_weekdays",
                  "value" : 3
               },
               {
                  "name" : "nat_vent_num_weekends",
                  "value" : 0
               },
               {
                  "name" : "nat_vent_frac_windows_open",
                  "value" : 0.33000000000000002
               },
               {
                  "name" : "nat_vent_frac_window_area_openable",
                  "value" : 0.20000000000000001
               },
               {
                  "name" : "nat_vent_max_oa_hr",
                  "value" : 0.0115
               },
               {
                  "name" : "nat_vent_max_oa_rh",
                  "value" : 0.69999999999999996
               },
               {
                  "name" : "duct_location",
                  "value" : "auto"
               },
               {
                  "name" : "duct_total_leakage",
                  "value" : 0.20000000000000001
               },
               {
                  "name" : "duct_supply_frac",
                  "value" : 0.59999999999999998
               },
               {
                  "name" : "duct_return_frac",
                  "value" : 0.067000000000000004
               },
               {
                  "name" : "duct_ah_supply_frac",
                  "value" : 0.067000000000000004
               },
               {
                  "name" : "duct_ah_return_frac",
                  "value" : 0.26700000000000002
               },
               {
                  "name" : "duct_location_frac",
                  "value" : "auto"
               },
               {
                  "name" : "duct_num_returns",
                  "value" : "auto"
               },
               {
                  "name" : "duct_supply_area_mult",
                  "value" : 1
               },
               {
                  "name" : "duct_return_area_mult",
                  "value" : 1
               },
               {
                  "name" : "duct_r",
                  "value" : 0
               }
            ],
            "step_warnings" : [
               "No ducted HVAC equipment was found but ducts were specified. Overriding duct specification."
            ]
         }
      },
      {
         "arguments" : {
            "show_debug_info" : "true"
         },
         "measure_dir_name" : "ResidentialHVACSizing",
         "result" : {
            "completed_at" : "20191210T173405Z",
            "measure_class_name" : "ProcessHVACSizing",
            "measure_display_name" : "Set Residential HVAC Sizing",
            "measure_name" : "process_hvac_sizing",
            "measure_taxonomy" : "HVAC.HVAC Controls",
            "measure_type" : "ModelMeasure",
            "measure_uid" : "6cd70740-6ca3-4575-8b1e-663976e254d0",
            "measure_version_id" : "86dc85ce-8743-4ffa-9215-c1e898f8130b",
            "measure_version_modified" : "20190701T173020Z",
            "measure_xml_checksum" : "356BE47F",
            "started_at" : "20191210T173401Z",
            "stderr" : "",
            "stdout" : "[openstudio.model.YearDescription] <1> 'UseWeatherFile' is not yet a supported option for YearDescription\n[openstudio.model.YearDescription] <1> 'UseWeatherFile' is not yet a supported option for YearDescription\n[openstudio.model.YearDescription] <1> 'UseWeatherFile' is not yet a supported option for YearDescription\n[openstudio.model.YearDescription] <1> 'UseWeatherFile' is not yet a supported option for YearDescription\n[openstudio.model.YearDescription] <1> 'UseWeatherFile' is not yet a supported option for YearDescription\n[openstudio.model.YearDescription] <1> 'UseWeatherFile' is not yet a supported option for YearDescription\n[openstudio.model.YearDescription] <1> 'UseWeatherFile' is not yet a supported option for YearDescription\n[openstudio.model.YearDescription] <1> 'UseWeatherFile' is not yet a supported option for YearDescription\n[openstudio.model.YearDescription] <1> 'UseWeatherFile' is not yet a supported option for YearDescription\n[openstudio.model.YearDescription] <1> 'UseWeatherFile' is not yet a supported option for YearDescription\n[openstudio.model.YearDescription] <1> 'UseWeatherFile' is not yet a supported option for YearDescription\n[openstudio.model.YearDescription] <1> 'UseWeatherFile' is not yet a supported option for YearDescription\n[openstudio.model.YearDescription] <1> 'UseWeatherFile' is not yet a supported option for YearDescription\n[openstudio.model.YearDescription] <1> 'UseWeatherFile' is not yet a supported option for YearDescription\n[openstudio.model.YearDescription] <1> 'UseWeatherFile' is not yet a supported option for YearDescription\n[openstudio.model.YearDescription] <1> 'UseWeatherFile' is not yet a supported option for YearDescription\n[openstudio.model.YearDescription] <1> 'UseWeatherFile' is not yet a supported option for YearDescription\n[openstudio.model.YearDescription] <1> 'UseWeatherFile' is not yet a supported option for YearDescription\n[openstudio.model.YearDescription] <1> 'UseWeatherFile' is not yet a supported option for YearDescription\n[openstudio.model.YearDescription] <1> 'UseWeatherFile' is not yet a supported option for YearDescription\n[openstudio.model.YearDescription] <1> 'UseWeatherFile' is not yet a supported option for YearDescription\n[openstudio.model.YearDescription] <1> 'UseWeatherFile' is not yet a supported option for YearDescription\n[openstudio.model.YearDescription] <1> 'UseWeatherFile' is not yet a supported option for YearDescription\n[openstudio.model.YearDescription] <1> 'UseWeatherFile' is not yet a supported option for YearDescription\n[openstudio.model.YearDescription] <1> 'UseWeatherFile' is not yet a supported option for YearDescription\n[openstudio.model.YearDescription] <1> 'UseWeatherFile' is not yet a supported option for YearDescription\n[openstudio.model.YearDescription] <1> 'UseWeatherFile' is not yet a supported option for YearDescription\n[openstudio.model.YearDescription] <1> 'UseWeatherFile' is not yet a supported option for YearDescription\n[openstudio.model.YearDescription] <1> 'UseWeatherFile' is not yet a supported option for YearDescription\n[openstudio.model.YearDescription] <1> 'UseWeatherFile' is not yet a supported option for YearDescription\n[openstudio.model.YearDescription] <1> 'UseWeatherFile' is not yet a supported option for YearDescription\n[openstudio.model.YearDescription] <1> 'UseWeatherFile' is not yet a supported option for YearDescription\n[openstudio.model.YearDescription] <1> 'UseWeatherFile' is not yet a supported option for YearDescription\n[openstudio.model.YearDescription] <1> 'UseWeatherFile' is not yet a supported option for YearDescription\n[openstudio.model.YearDescription] <1> 'UseWeatherFile' is not yet a supported option for YearDescription\n[openstudio.model.YearDescription] <1> 'UseWeatherFile' is not yet a supported option for YearDescription\n[openstudio.model.YearDescription] <1> 'UseWeatherFile' is not yet a supported option for YearDescription\n[openstudio.model.YearDescription] <1> 'UseWeatherFile' is not yet a supported option for YearDescription\n[openstudio.model.YearDescription] <1> 'UseWeatherFile' is not yet a supported option for YearDescription\n[openstudio.model.YearDescription] <1> 'UseWeatherFile' is not yet a supported option for YearDescription\n[openstudio.model.YearDescription] <1> 'UseWeatherFile' is not yet a supported option for YearDescription\n[openstudio.model.YearDescription] <1> 'UseWeatherFile' is not yet a supported option for YearDescription\n[openstudio.model.YearDescription] <1> 'UseWeatherFile' is not yet a supported option for YearDescription\n[openstudio.model.YearDescription] <1> 'UseWeatherFile' is not yet a supported option for YearDescription\n[openstudio.model.YearDescription] <1> 'UseWeatherFile' is not yet a supported option for YearDescription\n[openstudio.model.YearDescription] <1> 'UseWeatherFile' is not yet a supported option for YearDescription\n[openstudio.model.YearDescription] <1> 'UseWeatherFile' is not yet a supported option for YearDescription\n[openstudio.model.YearDescription] <1> 'UseWeatherFile' is not yet a supported option for YearDescription\n",
            "step_errors" : [],
            "step_files" : [],
            "step_final_condition" : "HVAC objects updated as appropriate.",
            "step_info" : [
               "Added heating/cooling design days for autosizing.",
               "Found central cooling fan coil in living zone.",
               "Found central heating fan coil in living zone.",
               "unit 1 Zone Loads for living zone:\nHeat Windows = 5246 Btu/hr\nHeat Skylights = 0 Btu/hr\nHeat Doors = 0 Btu/hr\nHeat Walls = 8801 Btu/hr\nHeat Roofs = 0 Btu/hr\nHeat Floors = 2928 Btu/hr\nHeat Infil = 6017 Btu/hr\nCool Windows = 2916 Btu/hr\nCool Skylights = 0 Btu/hr\nCool Doors = 0 Btu/hr\nCool Walls = 1980 Btu/hr\nCool Roofs = 0 Btu/hr\nCool Floors = -914 Btu/hr\nCool Infil Sens = 592 Btu/hr\nCool Infil Lat = 738 Btu/hr\nCool IntGains Sens = 2549 Btu/hr\nCool IntGains Lat = 1062 Btu/hr\nDehumid Windows = 363 Btu/hr\nDehumid Skylights = 0 Btu/hr\nDehumid Doors = 0 Btu/hr\nDehumid Walls = 609 Btu/hr\nDehumid Roofs = 0 Btu/hr\nDehumid Floors = 3313 Btu/hr\nDehumid Infil Sens = 327 Btu/hr\nDehumid Infil Lat = 1684 Btu/hr\nDehumid IntGains Sens = 2099 Btu/hr\nDehumid IntGains Lat = 1113 Btu/hr\n",
               "unit 1 Initial Results (w/o ducts):\nHeat Load = 22991 Btu/hr\nCool Load Sens = 7123 Btu/hr\nCool Load Lat = 1799 Btu/hr\nDehumid Load Sens = 6712 Btu/hr\nDehumid Load Lat = 2797 Btu/hr\nHeat Airflow = 0 cfm\nCool Airflow = 315 cfm\n",
               "unit 1 Final Results:\nHeat Load = 22991 Btu/hr\nHeat Load Ducts = 0 Btu/hr\nCool Load Lat = 1799 Btu/hr\nCool Load Sens = 7123 Btu/hr\nCool Load Ducts Lat = 0 Btu/hr\nCool Load Ducts Sens = 0 Btu/hr\nDehumid Load Sens = 6712 Btu/hr\nDehumid Load Ducts Lat = 2797 Btu/hr\nCool Capacity = 0 Btu/hr\nCool Capacity Sens = 0 Btu/hr\nHeat Capacity = 0 Btu/hr\nHeat Capacity Supp = 0 Btu/hr\nCool Airflow = 0 cfm\nHeat Airflow = 0 cfm\nDehumid WaterRemoval = 0 L/day\n",
               "Found central cooling fan coil in living zone|unit 2.",
               "Found central heating fan coil in living zone|unit 2.",
               "unit 2 Zone Loads for living zone|unit 2:\nHeat Windows = 5246 Btu/hr\nHeat Skylights = 0 Btu/hr\nHeat Doors = 0 Btu/hr\nHeat Walls = 8801 Btu/hr\nHeat Roofs = 0 Btu/hr\nHeat Floors = 2928 Btu/hr\nHeat Infil = 6017 Btu/hr\nCool Windows = 2760 Btu/hr\nCool Skylights = 0 Btu/hr\nCool Doors = 0 Btu/hr\nCool Walls = 1980 Btu/hr\nCool Roofs = 0 Btu/hr\nCool Floors = -914 Btu/hr\nCool Infil Sens = 592 Btu/hr\nCool Infil Lat = 738 Btu/hr\nCool IntGains Sens = 2549 Btu/hr\nCool IntGains Lat = 1062 Btu/hr\nDehumid Windows = 363 Btu/hr\nDehumid Skylights = 0 Btu/hr\nDehumid Doors = 0 Btu/hr\nDehumid Walls = 609 Btu/hr\nDehumid Roofs = 0 Btu/hr\nDehumid Floors = 3313 Btu/hr\nDehumid Infil Sens = 327 Btu/hr\nDehumid Infil Lat = 1684 Btu/hr\nDehumid IntGains Sens = 2099 Btu/hr\nDehumid IntGains Lat = 1113 Btu/hr\n",
               "unit 2 Initial Results (w/o ducts):\nHeat Load = 22991 Btu/hr\nCool Load Sens = 6967 Btu/hr\nCool Load Lat = 1799 Btu/hr\nDehumid Load Sens = 6712 Btu/hr\nDehumid Load Lat = 2797 Btu/hr\nHeat Airflow = 0 cfm\nCool Airflow = 308 cfm\n",
               "unit 2 Final Results:\nHeat Load = 22991 Btu/hr\nHeat Load Ducts = 0 Btu/hr\nCool Load Lat = 1799 Btu/hr\nCool Load Sens = 6967 Btu/hr\nCool Load Ducts Lat = 0 Btu/hr\nCool Load Ducts Sens = 0 Btu/hr\nDehumid Load Sens = 6712 Btu/hr\nDehumid Load Ducts Lat = 2797 Btu/hr\nCool Capacity = 0 Btu/hr\nCool Capacity Sens = 0 Btu/hr\nHeat Capacity = 0 Btu/hr\nHeat Capacity Supp = 0 Btu/hr\nCool Airflow = 0 cfm\nHeat Airflow = 0 cfm\nDehumid WaterRemoval = 0 L/day\n",
               "Found central cooling fan coil in living zone|unit 3.",
               "Found central heating fan coil in living zone|unit 3.",
               "unit 3 Zone Loads for living zone|unit 3:\nHeat Windows = 5246 Btu/hr\nHeat Skylights = 0 Btu/hr\nHeat Doors = 0 Btu/hr\nHeat Walls = 8801 Btu/hr\nHeat Roofs = 0 Btu/hr\nHeat Floors = 0 Btu/hr\nHeat Infil = 6017 Btu/hr\nCool Windows = 2916 Btu/hr\nCool Skylights = 0 Btu/hr\nCool Doors = 0 Btu/hr\nCool Walls = 1980 Btu/hr\nCool Roofs = 0 Btu/hr\nCool Floors = 0 Btu/hr\nCool Infil Sens = 592 Btu/hr\nCool Infil Lat = 738 Btu/hr\nCool IntGains Sens = 2837 Btu/hr\nCool IntGains Lat = 1062 Btu/hr\nDehumid Windows = 363 Btu/hr\nDehumid Skylights = 0 Btu/hr\nDehumid Doors = 0 Btu/hr\nDehumid Walls = 609 Btu/hr\nDehumid Roofs = 0 Btu/hr\nDehumid Floors = 0 Btu/hr\nDehumid Infil Sens = 327 Btu/hr\nDehumid Infil Lat = 1684 Btu/hr\nDehumid IntGains Sens = 2318 Btu/hr\nDehumid IntGains Lat = 1113 Btu/hr\n",
               "unit 3 Initial Results (w/o ducts):\nHeat Load = 20064 Btu/hr\nCool Load Sens = 8325 Btu/hr\nCool Load Lat = 1799 Btu/hr\nDehumid Load Sens = 3618 Btu/hr\nDehumid Load Lat = 2797 Btu/hr\nHeat Airflow = 0 cfm\nCool Airflow = 402 cfm\n",
               "unit 3 Final Results:\nHeat Load = 20064 Btu/hr\nHeat Load Ducts = 0 Btu/hr\nCool Load Lat = 1799 Btu/hr\nCool Load Sens = 8325 Btu/hr\nCool Load Ducts Lat = 0 Btu/hr\nCool Load Ducts Sens = 0 Btu/hr\nDehumid Load Sens = 3618 Btu/hr\nDehumid Load Ducts Lat = 2797 Btu/hr\nCool Capacity = 0 Btu/hr\nCool Capacity Sens = 0 Btu/hr\nHeat Capacity = 0 Btu/hr\nHeat Capacity Supp = 0 Btu/hr\nCool Airflow = 0 cfm\nHeat Airflow = 0 cfm\nDehumid WaterRemoval = 0 L/day\n",
               "Found central cooling fan coil in living zone|unit 4.",
               "Found central heating fan coil in living zone|unit 4.",
               "unit 4 Zone Loads for living zone|unit 4:\nHeat Windows = 5246 Btu/hr\nHeat Skylights = 0 Btu/hr\nHeat Doors = 0 Btu/hr\nHeat Walls = 8801 Btu/hr\nHeat Roofs = 0 Btu/hr\nHeat Floors = 0 Btu/hr\nHeat Infil = 6017 Btu/hr\nCool Windows = 2760 Btu/hr\nCool Skylights = 0 Btu/hr\nCool Doors = 0 Btu/hr\nCool Walls = 1980 Btu/hr\nCool Roofs = 0 Btu/hr\nCool Floors = 0 Btu/hr\nCool Infil Sens = 592 Btu/hr\nCool Infil Lat = 738 Btu/hr\nCool IntGains Sens = 2837 Btu/hr\nCool IntGains Lat = 1062 Btu/hr\nDehumid Windows = 363 Btu/hr\nDehumid Skylights = 0 Btu/hr\nDehumid Doors = 0 Btu/hr\nDehumid Walls = 609 Btu/hr\nDehumid Roofs = 0 Btu/hr\nDehumid Floors = 0 Btu/hr\nDehumid Infil Sens = 327 Btu/hr\nDehumid Infil Lat = 1684 Btu/hr\nDehumid IntGains Sens = 2318 Btu/hr\nDehumid IntGains Lat = 1113 Btu/hr\n",
               "unit 4 Initial Results (w/o ducts):\nHeat Load = 20064 Btu/hr\nCool Load Sens = 8170 Btu/hr\nCool Load Lat = 1799 Btu/hr\nDehumid Load Sens = 3618 Btu/hr\nDehumid Load Lat = 2797 Btu/hr\nHeat Airflow = 0 cfm\nCool Airflow = 390 cfm\n",
               "unit 4 Final Results:\nHeat Load = 20064 Btu/hr\nHeat Load Ducts = 0 Btu/hr\nCool Load Lat = 1799 Btu/hr\nCool Load Sens = 8170 Btu/hr\nCool Load Ducts Lat = 0 Btu/hr\nCool Load Ducts Sens = 0 Btu/hr\nDehumid Load Sens = 3618 Btu/hr\nDehumid Load Ducts Lat = 2797 Btu/hr\nCool Capacity = 0 Btu/hr\nCool Capacity Sens = 0 Btu/hr\nHeat Capacity = 0 Btu/hr\nHeat Capacity Supp = 0 Btu/hr\nCool Airflow = 0 cfm\nHeat Airflow = 0 cfm\nDehumid WaterRemoval = 0 L/day\n",
               "Found central cooling fan coil in living zone|unit 5.",
               "Found central heating fan coil in living zone|unit 5.",
               "unit 5 Zone Loads for living zone|unit 5:\nHeat Windows = 5246 Btu/hr\nHeat Skylights = 0 Btu/hr\nHeat Doors = 0 Btu/hr\nHeat Walls = 8801 Btu/hr\nHeat Roofs = 1140 Btu/hr\nHeat Floors = 0 Btu/hr\nHeat Infil = 6017 Btu/hr\nCool Windows = 2916 Btu/hr\nCool Skylights = 0 Btu/hr\nCool Doors = 0 Btu/hr\nCool Walls = 1980 Btu/hr\nCool Roofs = 315 Btu/hr\nCool Floors = 0 Btu/hr\nCool Infil Sens = 592 Btu/hr\nCool Infil Lat = 738 Btu/hr\nCool IntGains Sens = 2837 Btu/hr\nCool IntGains Lat = 1062 Btu/hr\nDehumid Windows = 363 Btu/hr\nDehumid Skylights = 0 Btu/hr\nDehumid Doors = 0 Btu/hr\nDehumid Walls = 609 Btu/hr\nDehumid Roofs = 79 Btu/hr\nDehumid Floors = 0 Btu/hr\nDehumid Infil Sens = 327 Btu/hr\nDehumid Infil Lat = 1684 Btu/hr\nDehumid IntGains Sens = 2318 Btu/hr\nDehumid IntGains Lat = 1113 Btu/hr\n",
               "unit 5 Initial Results (w/o ducts):\nHeat Load = 21204 Btu/hr\nCool Load Sens = 8641 Btu/hr\nCool Load Lat = 1799 Btu/hr\nDehumid Load Sens = 3697 Btu/hr\nDehumid Load Lat = 2797 Btu/hr\nHeat Airflow = 0 cfm\nCool Airflow = 427 cfm\n",
               "unit 5 Final Results:\nHeat Load = 21204 Btu/hr\nHeat Load Ducts = 0 Btu/hr\nCool Load Lat = 1799 Btu/hr\nCool Load Sens = 8641 Btu/hr\nCool Load Ducts Lat = 0 Btu/hr\nCool Load Ducts Sens = 0 Btu/hr\nDehumid Load Sens = 3697 Btu/hr\nDehumid Load Ducts Lat = 2797 Btu/hr\nCool Capacity = 0 Btu/hr\nCool Capacity Sens = 0 Btu/hr\nHeat Capacity = 0 Btu/hr\nHeat Capacity Supp = 0 Btu/hr\nCool Airflow = 0 cfm\nHeat Airflow = 0 cfm\nDehumid WaterRemoval = 0 L/day\n",
               "Found central cooling fan coil in living zone|unit 6.",
               "Found central heating fan coil in living zone|unit 6.",
               "unit 6 Zone Loads for living zone|unit 6:\nHeat Windows = 5246 Btu/hr\nHeat Skylights = 0 Btu/hr\nHeat Doors = 0 Btu/hr\nHeat Walls = 8801 Btu/hr\nHeat Roofs = 1140 Btu/hr\nHeat Floors = 0 Btu/hr\nHeat Infil = 6017 Btu/hr\nCool Windows = 2760 Btu/hr\nCool Skylights = 0 Btu/hr\nCool Doors = 0 Btu/hr\nCool Walls = 1980 Btu/hr\nCool Roofs = 315 Btu/hr\nCool Floors = 0 Btu/hr\nCool Infil Sens = 592 Btu/hr\nCool Infil Lat = 738 Btu/hr\nCool IntGains Sens = 2837 Btu/hr\nCool IntGains Lat = 1062 Btu/hr\nDehumid Windows = 363 Btu/hr\nDehumid Skylights = 0 Btu/hr\nDehumid Doors = 0 Btu/hr\nDehumid Walls = 609 Btu/hr\nDehumid Roofs = 79 Btu/hr\nDehumid Floors = 0 Btu/hr\nDehumid Infil Sens = 327 Btu/hr\nDehumid Infil Lat = 1684 Btu/hr\nDehumid IntGains Sens = 2318 Btu/hr\nDehumid IntGains Lat = 1113 Btu/hr\n",
               "unit 6 Initial Results (w/o ducts):\nHeat Load = 21204 Btu/hr\nCool Load Sens = 8485 Btu/hr\nCool Load Lat = 1799 Btu/hr\nDehumid Load Sens = 3697 Btu/hr\nDehumid Load Lat = 2797 Btu/hr\nHeat Airflow = 0 cfm\nCool Airflow = 414 cfm\n",
               "unit 6 Final Results:\nHeat Load = 21204 Btu/hr\nHeat Load Ducts = 0 Btu/hr\nCool Load Lat = 1799 Btu/hr\nCool Load Sens = 8485 Btu/hr\nCool Load Ducts Lat = 0 Btu/hr\nCool Load Ducts Sens = 0 Btu/hr\nDehumid Load Sens = 3697 Btu/hr\nDehumid Load Ducts Lat = 2797 Btu/hr\nCool Capacity = 0 Btu/hr\nCool Capacity Sens = 0 Btu/hr\nHeat Capacity = 0 Btu/hr\nHeat Capacity Supp = 0 Btu/hr\nCool Airflow = 0 cfm\nHeat Airflow = 0 cfm\nDehumid WaterRemoval = 0 L/day\n"
            ],
            "step_result" : "Success",
            "step_values" : [
               {
                  "name" : "show_debug_info",
                  "value" : true
               }
            ],
            "step_warnings" : []
         }
      }
   ],
   "updated_at" : "20191210T173537Z"
}
