{
   "completed_at" : "20200410T133603Z",
   "completed_status" : "Success",
   "current_step" : 27,
   "eplusout_err" : "Program Version,EnergyPlus, Version 9.2.0-921312fa1d, YMD=2020.04.10 07:35,\n   ** Warning ** CheckEnvironmentSpecifications: SimulationControl specified doing design day simulations, but no design environments specified.\n   **   ~~~   ** ...No design environment results produced. For these results, add appropriate SizingPeriod:* objects for your simulation.\n   ** Warning ** ProcessScheduleInput: Schedule:Constant=\"ALWAYS OFF DISCRETE\", Blank Schedule Type Limits Name input -- will not be validated.\n   ** Warning ** ProcessScheduleInput: Schedule:Constant=\"ALWAYS ON CONTINUOUS\", Blank Schedule Type Limits Name input -- will not be validated.\n   ** Warning ** CheckUsedConstructions: There are 2 nominally unused constructions in input.\n   **   ~~~   ** For explicit details on each unused construction, use Output:Diagnostics,DisplayExtraWarnings;\n   ** Warning ** Check input. Pump nominal power or motor efficiency is set to 0, for pump=PUMP VARIABLE SPEED 1\n   ** Warning ** Output:Meter: invalid Key Name=\"DISTRICTCOOLING:FACILITY\" - not found.\n   ** Warning ** Output:Meter: invalid Key Name=\"DISTRICTHEATING:FACILITY\" - not found.\n   ** Warning ** Output:Meter:MeterFileOnly requested for \"Electricity:Facility\" (TimeStep), already on \"Output:Meter\". Will report to both eplusout.eso and eplusout.mtr\n   ************* Testing Individual Branch Integrity\n   ************* All Branches passed integrity testing\n   ************* Testing Individual Supply Air Path Integrity\n   ************* All Supply Air Paths passed integrity testing\n   ************* Testing Individual Return Air Path Integrity\n   ************* All Return Air Paths passed integrity testing\n   ************* No node connection errors were found.\n   ************* Beginning Simulation\n   ** Warning ** Processing Monthly Tabular Reports: Variable names not valid for this simulation\n   **   ~~~   ** ...use Output:Diagnostics,DisplayExtraWarnings; to show more details on individual variables.\n   ** Warning ** The resource referenced by LifeCycleCost:UsePriceEscalation= \"U.S. AVG  COMMERCIAL-ELECTRICITY\" has no energy cost. \n   **   ~~~   ** ... It is likely that the wrong resource is used. The resource should match the meter used in Utility:Tariff.\n   ** Warning ** The resource referenced by LifeCycleCost:UsePriceEscalation= \"U.S. AVG  COMMERCIAL-DISTILLATE OIL\" has no energy cost. \n   **   ~~~   ** ... It is likely that the wrong resource is used. The resource should match the meter used in Utility:Tariff.\n   ** Warning ** The resource referenced by LifeCycleCost:UsePriceEscalation= \"U.S. AVG  COMMERCIAL-RESIDUAL OIL\" has no energy cost. \n   **   ~~~   ** ... It is likely that the wrong resource is used. The resource should match the meter used in Utility:Tariff.\n   ** Warning ** The resource referenced by LifeCycleCost:UsePriceEscalation= \"U.S. AVG  COMMERCIAL-NATURAL GAS\" has no energy cost. \n   **   ~~~   ** ... It is likely that the wrong resource is used. The resource should match the meter used in Utility:Tariff.\n   ** Warning ** The resource referenced by LifeCycleCost:UsePriceEscalation= \"U.S. AVG  COMMERCIAL-COAL\" has no energy cost. \n   **   ~~~   ** ... It is likely that the wrong resource is used. The resource should match the meter used in Utility:Tariff.\n   ************* Simulation Error Summary *************\n   ************* There are 6 unused schedules in input.\n   ************* There are 86 unused week schedules in input.\n   ************* There are 58 unused day schedules in input.\n   ************* Use Output:Diagnostics,DisplayUnusedSchedules; to see them.\n   *************\n   ************* ===== Final Error Summary =====\n   ************* The following error categories occurred.  Consider correcting or noting.\n   ************* Nominally Unused Constructions\n   ************* ..The nominally unused constructions warning is provided to alert you to potential conditions that can cause\n   ************* ..extra time during simulation. Each construction is calculated by the algorithm indicated in the HeatBalanceAlgorithm\n   ************* ..object. You may remove the constructions indicated (when you use the DisplayExtraWarnings option).\n   *************\n   ************* EnergyPlus Warmup Error Summary. During Warmup: 0 Warning; 0 Severe Errors.\n   ************* EnergyPlus Sizing Error Summary. During Sizing: 0 Warning; 0 Severe Errors.\n   ************* EnergyPlus Completed Successfully-- 14 Warning; 0 Severe Errors; Elapsed Time=00hr 00min 40.02sec\n",
   "file_paths" : [
      "C:/Users/aspeake/Documents/OpenStudio-BuildStock/workflows/singleunit_osw/generated_files",
      "./files",
      "./weather",
      "../../files",
      "../../weather",
      "./"
   ],
   "hash" : "B3123990",
   "measure_paths" : [ "../../measures", "../../resources/measures" ],
   "started_at" : "20200410T133458Z",
   "steps" : [
      {
         "arguments" : {
            "dst_end_date" : "October 26",
            "dst_start_date" : "April 7",
            "weather_directory" : "../HPXMLtoOpenStudio/weather",
            "weather_file_name" : "USA_NY_New.York-J.F.Kennedy.Intl.AP.744860_TMY3.epw"
         },
         "measure_dir_name" : "ResidentialLocation",
         "result" : {
            "completed_at" : "20200410T133501Z",
            "measure_class_name" : "SetResidentialEPWFile",
            "measure_display_name" : "Set Residential Location",
            "measure_name" : "set_residential_epw_file",
            "measure_taxonomy" : "Whole Building.Space Types",
            "measure_type" : "ModelMeasure",
            "measure_uid" : "16ac2c0c-6177-4bf2-91a5-1b6e8de4e85b",
            "measure_version_id" : "f89321a2-46dc-44ba-a139-698350046035",
            "measure_version_modified" : "20190701T173021Z",
            "measure_xml_checksum" : "D8922A73",
            "started_at" : "20200410T133459Z",
            "stderr" : "",
            "stdout" : "",
            "step_errors" : [],
            "step_files" : [],
            "step_final_condition" : "The weather file path is 'C:/Users/aspeake/Documents/OpenStudio-BuildStock/resources/measures/HPXMLtoOpenStudio/weather/USA_NY_New.York-J.F.Kennedy.Intl.AP.744860_TMY3.epw'.",
            "step_info" : [
               "Setting weather file.",
               "Setting site data.",
               "Setting Building America climate zone to Mixed-Humid.",
               "Setting mains water temperature profile.",
               "Set daylight saving time from 2009-Apr-07 to 2009-Oct-26."
            ],
            "step_result" : "Success",
            "step_values" : [
               {
                  "name" : "weather_directory",
                  "value" : "../HPXMLtoOpenStudio/weather"
               },
               {
                  "name" : "weather_file_name",
                  "value" : "USA_NY_New.York-J.F.Kennedy.Intl.AP.744860_TMY3.epw"
               },
               {
                  "name" : "dst_start_date",
                  "value" : "April 7"
               },
               {
                  "name" : "dst_end_date",
                  "value" : "October 26"
               }
            ],
            "step_warnings" : []
         }
      },
      {
         "arguments" : {
            "balcony_depth" : "0",
            "corridor_position" : "Double-Loaded Interior",
            "corridor_width" : "10",
            "eaves_depth" : "2",
            "foundation_height" : "8",
            "foundation_type" : "unfinished basement",
            "horz_location" : "Left",
            "inset_depth" : "0",
            "inset_position" : "Right",
            "inset_width" : "0",
            "level" : "Bottom",
            "minimal_collapsed" : "true",
            "neighbor_back_offset" : "0",
            "neighbor_front_offset" : "0",
            "neighbor_left_offset" : "4",
            "neighbor_right_offset" : "4",
            "num_bathrooms" : "1.5",
            "num_bedrooms" : "3",
            "num_floors" : "3",
            "num_occupants" : "3",
            "num_units" : "42",
            "occupants_monthly_sch" : "1.0, 1.0, 1.0, 1.0, 1.0, 1.0, 1.0, 1.0, 1.0, 1.0, 1.0, 1.0",
            "occupants_weekday_sch" : "1.00, 1.00, 1.00, 1.00, 1.00, 1.00, 1.00, 0.88, 0.41, 0.24, 0.24, 0.24, 0.24, 0.24, 0.24, 0.24, 0.29, 0.55, 0.90, 0.90, 0.90, 1.00, 1.00, 1.00",
            "occupants_weekend_sch" : "1.00, 1.00, 1.00, 1.00, 1.00, 1.00, 1.00, 0.88, 0.41, 0.24, 0.24, 0.24, 0.24, 0.24, 0.24, 0.24, 0.29, 0.55, 0.90, 0.90, 0.90, 1.00, 1.00, 1.00",
            "orientation" : "0",
            "unit_aspect_ratio" : "1.8",
            "unit_ffa" : "3138",
            "wall_height" : "8"
         },
         "measure_dir_name" : "ResidentialGeometryCreateMultifamily",
         "result" : {
            "completed_at" : "20200410T133501Z",
            "measure_class_name" : "CreateResidentialMultifamilyGeometry",
            "measure_display_name" : "CreateResidentialMultifamilyGeometry",
            "measure_name" : "create_residential_multifamily_geometry",
            "measure_taxonomy" : "Envelope.Form",
            "measure_type" : "ModelMeasure",
            "measure_uid" : "9bc07973-98a4-46fc-b643-e280628817c5",
            "measure_version_id" : "976f60c5-40cd-4d2a-a8a1-f2bd15ee9fce",
            "measure_version_modified" : "20200409T211309Z",
            "measure_xml_checksum" : "2AF3A68E",
            "started_at" : "20200410T133501Z",
            "stderr" : "",
            "stdout" : "[openstudio.model.YearDescription] <1> 'UseWeatherFile' is not yet a supported option for YearDescription\n",
            "step_errors" : [],
            "step_files" : [],
            "step_final_condition" : "The building finished with 3 spaces.",
            "step_info" : [
               "The building has been assigned 3 bedroom(s) and 1.5 bathroom(s) across 1 unit(s).",
               "unit 1 has been assigned 3.0 occupant(s) for space 'living space'.",
               "The building has been assigned 3.0 occupant(s) across 1 unit(s).",
               "No res eaves were added.",
               "Added 1 res neighbors shading surfaces.",
               "The building's final orientation was 0.0 azimuth."
            ],
            "step_initial_condition" : "The building started with 0 spaces.",
            "step_result" : "Success",
            "step_values" : [
               {
                  "name" : "unit_ffa",
                  "value" : 3138
               },
               {
                  "name" : "wall_height",
                  "value" : 8
               },
               {
                  "name" : "num_floors",
                  "value" : 3
               },
               {
                  "name" : "num_units",
                  "value" : 42
               },
               {
                  "name" : "unit_aspect_ratio",
                  "value" : 1.8
               },
               {
                  "name" : "corridor_position",
                  "value" : "Double-Loaded Interior"
               },
               {
                  "name" : "corridor_width",
                  "value" : 10
               },
               {
                  "name" : "inset_width",
                  "value" : 0
               },
               {
                  "name" : "inset_depth",
                  "value" : 0
               },
               {
                  "name" : "inset_position",
                  "value" : "Right"
               },
               {
                  "name" : "balcony_depth",
                  "value" : 0
               },
               {
                  "name" : "foundation_type",
                  "value" : "unfinished basement"
               },
               {
                  "name" : "foundation_height",
                  "value" : 8
               },
               {
                  "name" : "eaves_depth",
                  "value" : 2
               },
               {
                  "name" : "num_bedrooms",
                  "value" : "3"
               },
               {
                  "name" : "num_bathrooms",
                  "value" : "1.5"
               },
               {
                  "name" : "num_occupants",
                  "value" : "3"
               },
               {
                  "name" : "occupants_weekday_sch",
                  "value" : "1.00, 1.00, 1.00, 1.00, 1.00, 1.00, 1.00, 0.88, 0.41, 0.24, 0.24, 0.24, 0.24, 0.24, 0.24, 0.24, 0.29, 0.55, 0.90, 0.90, 0.90, 1.00, 1.00, 1.00"
               },
               {
                  "name" : "occupants_weekend_sch",
                  "value" : "1.00, 1.00, 1.00, 1.00, 1.00, 1.00, 1.00, 0.88, 0.41, 0.24, 0.24, 0.24, 0.24, 0.24, 0.24, 0.24, 0.29, 0.55, 0.90, 0.90, 0.90, 1.00, 1.00, 1.00"
               },
               {
                  "name" : "occupants_monthly_sch",
                  "value" : "1.0, 1.0, 1.0, 1.0, 1.0, 1.0, 1.0, 1.0, 1.0, 1.0, 1.0, 1.0"
               },
               {
                  "name" : "neighbor_left_offset",
                  "value" : 4
               },
               {
                  "name" : "neighbor_right_offset",
                  "value" : 4
               },
               {
                  "name" : "neighbor_back_offset",
                  "value" : 0
               },
               {
                  "name" : "neighbor_front_offset",
                  "value" : 0
               },
               {
                  "name" : "orientation",
                  "value" : 0
               },
               {
                  "name" : "level",
                  "value" : "Bottom"
               },
               {
                  "name" : "horz_location",
                  "value" : "Left"
               },
               {
                  "name" : "minimal_collapsed",
                  "value" : true
               }
            ],
            "step_warnings" : []
         }
      },
      {
         "arguments" : {
            "door_area" : "20"
         },
         "measure_dir_name" : "ResidentialGeometryDoorArea",
         "result" : {
            "completed_at" : "20200410T133501Z",
            "measure_class_name" : "CreateResidentialDoorArea",
            "measure_display_name" : "Set Residential Door Area",
            "measure_name" : "create_residential_door_area",
            "measure_taxonomy" : "Envelope.Fenestration",
            "measure_type" : "ModelMeasure",
            "measure_uid" : "901a04ee-99d4-42b3-91e1-b5b97970f441",
            "measure_version_id" : "84151180-e119-49a1-8696-640cf29feeaf",
            "measure_version_modified" : "20200324T183313Z",
            "measure_xml_checksum" : "9C8A26EB",
            "started_at" : "20200410T133501Z",
            "stderr" : "",
            "stdout" : "",
            "step_errors" : [],
            "step_files" : [],
            "step_final_condition" : "The building has been assigned 20.0 ft^2 total door area.",
            "step_info" : [ "For unit 1 added 20.0 ft^2 door." ],
            "step_result" : "Success",
            "step_values" : [
               {
                  "name" : "door_area",
                  "value" : 20
               }
            ],
            "step_warnings" : []
         }
      },
      {
         "arguments" : {
            "back_skylight_area" : "0",
            "back_window_area" : "0",
            "back_wwr" : "0.15",
            "front_skylight_area" : "0",
            "front_window_area" : "0",
            "front_wwr" : "0.15",
            "left_skylight_area" : "0",
            "left_window_area" : "0",
            "left_wwr" : "0.15",
            "overhang_back_facade" : "false",
            "overhang_depth" : "0",
            "overhang_front_facade" : "false",
            "overhang_left_facade" : "false",
            "overhang_offset" : "0",
            "overhang_right_facade" : "false",
            "right_skylight_area" : "0",
            "right_window_area" : "0",
            "right_wwr" : "0.15",
            "window_aspect_ratio" : "1.333"
         },
         "measure_dir_name" : "ResidentialGeometryWindowSkylightArea",
         "result" : {
            "completed_at" : "20200410T133502Z",
            "measure_class_name" : "SetResidentialWindowSkylightArea",
            "measure_display_name" : "Set Residential Window/Skylight Area",
            "measure_name" : "set_residential_window_skylight_area",
            "measure_taxonomy" : "Envelope.Fenestration",
            "measure_type" : "ModelMeasure",
            "measure_uid" : "d05f5b32-1ad6-4c3d-964a-0dbd49a7fde8",
            "measure_version_id" : "1bb1dd6d-35bf-4e3c-b52c-d173930c8d5c",
            "measure_version_modified" : "20200324T183313Z",
            "measure_xml_checksum" : "9014E219",
            "started_at" : "20200410T133502Z",
            "stderr" : "",
            "stdout" : "",
            "step_errors" : [],
            "step_files" : [],
            "step_final_condition" : "The building has been assigned 140.3 ft^2 total window area, and 0.0 ft^2 total skylight area.",
            "step_info" : [
               "Added 5 window(s), totaling 50.1 ft^2, to Surface 5.",
               "Added 8 window(s), totaling 90.2 ft^2, to Surface 2.",
               "No res overhangs to be added."
            ],
            "step_result" : "Success",
            "step_values" : [
               {
                  "name" : "front_wwr",
                  "value" : 0.14999999999999999
               },
               {
                  "name" : "back_wwr",
                  "value" : 0.14999999999999999
               },
               {
                  "name" : "left_wwr",
                  "value" : 0.14999999999999999
               },
               {
                  "name" : "right_wwr",
                  "value" : 0.14999999999999999
               },
               {
                  "name" : "front_window_area",
                  "value" : 0
               },
               {
                  "name" : "back_window_area",
                  "value" : 0
               },
               {
                  "name" : "left_window_area",
                  "value" : 0
               },
               {
                  "name" : "right_window_area",
                  "value" : 0
               },
               {
                  "name" : "window_aspect_ratio",
                  "value" : 1.333
               },
               {
                  "name" : "overhang_depth",
                  "value" : 0
               },
               {
                  "name" : "overhang_offset",
                  "value" : 0
               },
               {
                  "name" : "overhang_front_facade",
                  "value" : false
               },
               {
                  "name" : "overhang_back_facade",
                  "value" : false
               },
               {
                  "name" : "overhang_left_facade",
                  "value" : false
               },
               {
                  "name" : "overhang_right_facade",
                  "value" : false
               },
               {
                  "name" : "front_skylight_area",
                  "value" : 0
               },
               {
                  "name" : "back_skylight_area",
                  "value" : 0
               },
               {
                  "name" : "left_skylight_area",
                  "value" : 0
               },
               {
                  "name" : "right_skylight_area",
                  "value" : 0
               }
            ],
            "step_warnings" : []
         }
      },
      {
         "arguments" : {
            "ceiling_drywall_thick_in" : "0.5",
            "ceiling_framing_factor" : "0.07",
            "ceiling_ins_thick_in" : "14.01",
            "ceiling_install_grade" : "1",
            "ceiling_joist_height_in" : "3.5",
            "ceiling_r" : "38",
            "has_radiant_barrier" : "false",
            "roof_cavity_ins_thick_in" : "0",
            "roof_cavity_r" : "0",
            "roof_framing_factor" : "0.07",
            "roof_framing_thick_in" : "7.25",
            "roof_install_grade" : "1",
            "roof_osb_thick_in" : "0.75",
            "roof_rigid_r" : "0",
            "roofing_material" : "Asphalt Shingles, Medium"
         },
         "measure_dir_name" : "ResidentialConstructionsUnfinishedAttic",
         "result" : {
            "completed_at" : "20200410T133502Z",
            "measure_class_name" : "ProcessConstructionsUnfinishedAttic",
            "measure_display_name" : "Set Residential Unfinished Attic Constructions",
            "measure_name" : "process_constructions_unfinished_attic",
            "measure_taxonomy" : "Envelope.Opaque",
            "measure_type" : "ModelMeasure",
            "measure_uid" : "235ba3ce-dd83-4287-aa0e-435dc1cbf1a7",
            "measure_version_id" : "af5c6a9c-8320-4e41-9c7d-01aa6d4be420",
            "measure_version_modified" : "20200226T215030Z",
            "measure_xml_checksum" : "1E963D9C",
            "started_at" : "20200410T133502Z",
            "stderr" : "",
            "stdout" : "",
            "step_errors" : [],
            "step_files" : [],
            "step_info" : [
               "Material 'Asphalt Shingles, Medium' was created.",
               "Material 'RoofSheathing' was created.",
               "Material 'RoofStudAndAirRoof' was created.",
               "Construction 'RoofUnfinUninsExt' was created with 3 materials (Asphalt Shingles, Medium | RoofSheathing | RoofStudAndAirRoof).",
               "Surface 'Surface 12' has been assigned construction 'RoofUnfinUninsExt'.",
               "Material 'Drywall 0.5 in.' was created.",
               "Material 'FloorFinStudAndAirFloor' was created.",
               "Material 'Wood Floor' was created.",
               "Material 'Floor Covering' was created.",
               "Construction 'SurfaceTypeRoofAdiabatic' was created with 5 materials (Drywall 0.5 in. | FloorFinStudAndAirFloor | RoofSheathing | Wood Floor | Floor Covering).",
               "Surface 'Surface 6' has been assigned construction 'SurfaceTypeRoofAdiabatic'.",
               "Construction 'SurfaceTypeRoofAdiabatic Reversed' was created with 5 materials (Floor Covering | Wood Floor | RoofSheathing | FloorFinStudAndAirFloor | Drywall 0.5 in.).",
               "Surface 'Surface 6' has been assigned construction 'SurfaceTypeRoofAdiabatic Reversed'.",
               "Surface 'Surface 18' has been assigned construction 'SurfaceTypeRoofAdiabatic'.",
               "Surface 'Surface 18' has been assigned construction 'SurfaceTypeRoofAdiabatic Reversed'.",
               "Removed construction 'SurfaceTypeRoofAdiabatic' because it was orphaned."
            ],
            "step_result" : "Success",
            "step_values" : [
               {
                  "name" : "ceiling_r",
                  "value" : 38
               },
               {
                  "name" : "ceiling_install_grade",
                  "value" : "1"
               },
               {
                  "name" : "ceiling_ins_thick_in",
                  "value" : 14.01
               },
               {
                  "name" : "ceiling_framing_factor",
                  "value" : 0.070000000000000007
               },
               {
                  "name" : "ceiling_joist_height_in",
                  "value" : 3.5
               },
               {
                  "name" : "ceiling_drywall_thick_in",
                  "value" : 0.5
               },
               {
                  "name" : "roof_cavity_r",
                  "value" : 0
               },
               {
                  "name" : "roof_install_grade",
                  "value" : "1"
               },
               {
                  "name" : "roof_cavity_ins_thick_in",
                  "value" : 0
               },
               {
                  "name" : "roof_framing_factor",
                  "value" : 0.070000000000000007
               },
               {
                  "name" : "roof_framing_thick_in",
                  "value" : 7.25
               },
               {
                  "name" : "roof_osb_thick_in",
                  "value" : 0.75
               },
               {
                  "name" : "roof_rigid_r",
                  "value" : 0
               },
               {
                  "name" : "roofing_material",
                  "value" : "Asphalt Shingles, Medium"
               },
               {
                  "name" : "has_radiant_barrier",
                  "value" : false
               }
            ],
            "step_warnings" : []
         }
      },
      {
         "arguments" : {
            "cavity_depth" : "9.25",
            "cavity_r" : "19",
            "drywall_thick_in" : "0.5",
            "filled_cavity" : "true",
            "framing_factor" : "0.07",
            "install_grade" : "1",
            "osb_thick_in" : "0.75",
            "rigid_r" : "0.0",
            "roofing_material" : "Asphalt Shingles, Medium"
         },
         "measure_dir_name" : "ResidentialConstructionsFinishedRoof",
         "result" : {
            "completed_at" : "20200410T133503Z",
            "measure_class_name" : "ProcessConstructionsFinishedRoof",
            "measure_display_name" : "Set Residential Finished Roof Construction",
            "measure_name" : "process_constructions_finished_roof",
            "measure_taxonomy" : "Envelope.Opaque",
            "measure_type" : "ModelMeasure",
            "measure_uid" : "6349eb9b-6e7e-4ba9-b518-76d2f9f73c79",
            "measure_version_id" : "ef0fbf91-f47d-40e8-9750-d1f20eb916e3",
            "measure_version_modified" : "20200313T223244Z",
            "measure_xml_checksum" : "1E963D9C",
            "started_at" : "20200410T133502Z",
            "stderr" : "",
            "stdout" : "",
            "step_errors" : [],
            "step_files" : [],
            "step_info" : [
               "Material 'RoofStudAndAirRoof 1' was created.",
               "Construction 'RoofUnfinUninsExt 1' was created with 3 materials (Asphalt Shingles, Medium | RoofSheathing | RoofStudAndAirRoof 1).",
               "Surface 'Surface 12' has been assigned construction 'RoofUnfinUninsExt 1'.",
               "Construction 'SurfaceTypeRoofAdiabatic' was created with 5 materials (Drywall 0.5 in. | FloorFinStudAndAirFloor | RoofSheathing | Wood Floor | Floor Covering).",
               "Surface 'Surface 6' has been assigned construction 'SurfaceTypeRoofAdiabatic'.",
               "Construction 'SurfaceTypeRoofAdiabatic Reversed' was created with 5 materials (Floor Covering | Wood Floor | RoofSheathing | FloorFinStudAndAirFloor | Drywall 0.5 in.).",
               "Surface 'Surface 6' has been assigned construction 'SurfaceTypeRoofAdiabatic Reversed'.",
               "Surface 'Surface 18' has been assigned construction 'SurfaceTypeRoofAdiabatic'.",
               "Surface 'Surface 18' has been assigned construction 'SurfaceTypeRoofAdiabatic Reversed'.",
               "Removed construction 'RoofUnfinUninsExt' because it was orphaned.",
               "Removed construction 'SurfaceTypeRoofAdiabatic' because it was orphaned.",
               "Removed material 'RoofStudAndAirRoof' because it was orphaned."
            ],
            "step_result" : "Success",
            "step_values" : [
               {
                  "name" : "cavity_r",
                  "value" : 19
               },
               {
                  "name" : "install_grade",
                  "value" : "1"
               },
               {
                  "name" : "cavity_depth",
                  "value" : 9.25
               },
               {
                  "name" : "filled_cavity",
                  "value" : true
               },
               {
                  "name" : "framing_factor",
                  "value" : 0.070000000000000007
               },
               {
                  "name" : "drywall_thick_in",
                  "value" : 0.5
               },
               {
                  "name" : "osb_thick_in",
                  "value" : 0.75
               },
               {
                  "name" : "rigid_r",
                  "value" : 0
               },
               {
                  "name" : "roofing_material",
                  "value" : "Asphalt Shingles, Medium"
               }
            ],
            "step_warnings" : []
         }
      },
      {
         "arguments" : {
            "conductivity" : "5.29",
            "density" : "49",
            "drywall_thick_in" : "0.5",
            "exterior_finish" : "Vinyl, Light",
            "framing_factor" : "0.076",
            "furring_cavity_depth_in" : "1",
            "furring_r" : "0",
            "furring_spacing" : "24",
            "osb_thick_in" : "0.5",
            "rigid_r" : "0.0",
            "thick_in" : "12"
         },
         "measure_dir_name" : "ResidentialConstructionsWallsCMU",
         "result" : {
            "completed_at" : "20200410T133503Z",
            "measure_class_name" : "ProcessConstructionsWallsCMU",
            "measure_display_name" : "Set Residential Walls - CMU Construction",
            "measure_name" : "process_constructions_walls_cmu",
            "measure_taxonomy" : "Envelope.Opaque",
            "measure_type" : "ModelMeasure",
            "measure_uid" : "64c320f1-6e42-4f15-8946-8ca3e5314dd9",
            "measure_version_id" : "c2ad1d45-0c0c-47d4-9992-aafd119dea20",
            "measure_version_modified" : "20200324T183311Z",
            "measure_xml_checksum" : "2609226D",
            "started_at" : "20200410T133503Z",
            "stderr" : "",
            "stdout" : "",
            "step_errors" : [],
            "step_files" : [],
            "step_info" : [
               "Material 'Vinyl, Light' was created.",
               "Material 'WallSheathing' was created.",
               "Material 'WallCMU' was created.",
               "Material 'WallFurring' was created.",
               "Construction 'WallExtInsFin' was created with 5 materials (Vinyl, Light | WallSheathing | WallCMU | WallFurring | Drywall 0.5 in.).",
               "Surface 'Surface 5' has been assigned construction 'WallExtInsFin'.",
               "Surface 'Surface 2' has been assigned construction 'WallExtInsFin'.",
               "Material 'WallStudAndCavity' was created.",
               "Construction 'WallExtUninsUnfin' was created with 3 materials (Vinyl, Light | WallSheathing | WallStudAndCavity).",
               "Surface 'Surface 9' has been assigned construction 'WallExtUninsUnfin'.",
               "Surface 'Surface 10' has been assigned construction 'WallExtUninsUnfin'.",
               "Surface 'Surface 8' has been assigned construction 'WallExtUninsUnfin'.",
               "Material 'WallStudAndCavity 1' was created.",
               "Construction 'WallIntFinUninsFin' was created with 3 materials (Vinyl, Light | WallStudAndCavity 1 | Drywall 0.5 in.).",
               "Surface 'Surface 3' has been assigned construction 'WallIntFinUninsFin'.",
               "Construction 'WallIntFinUninsFin Reversed' was created with 3 materials (Drywall 0.5 in. | WallStudAndCavity 1 | Vinyl, Light).",
               "Surface 'Surface 3' has been assigned construction 'WallIntFinUninsFin Reversed'.",
               "Surface 'Surface 4' has been assigned construction 'WallIntFinUninsFin'.",
               "Surface 'Surface 4' has been assigned construction 'WallIntFinUninsFin Reversed'.",
               "Material 'WallStudAndCavity 2' was created.",
               "Construction 'WallIntUnfinUninsUnfin' was created with 2 materials (Vinyl, Light | WallStudAndCavity 2).",
               "Surface 'Surface 11' has been assigned construction 'WallIntUnfinUninsUnfin'.",
               "Construction 'WallIntUnfinUninsUnfin Reversed' was created with 2 materials (WallStudAndCavity 2 | Vinyl, Light).",
               "Surface 'Surface 11' has been assigned construction 'WallIntUnfinUninsUnfin Reversed'.",
               "Added internal mass object 'living space Partition' to space 'living space'",
               "Material 'WallStudAndCavity 3' was created.",
               "Construction 'WallIntFinUninsFin 1' was created with 2 materials (WallStudAndCavity 3 | Drywall 0.5 in.).",
               "InternalMassDefinition 'living space Partition' has been assigned construction 'WallIntFinUninsFin 1'.",
               "Material 'res furniture material living space' was created.",
               "Construction 'res furniture construction living space' was created with 1 material (res furniture material living space).",
               "InternalMassDefinition 'res furniture mass living space' has been assigned construction 'res furniture construction living space'.",
               "Assigned internal mass object 'res furniture mass living space' to space 'living space'.",
               "Construction 'res furniture construction unfinished basement space' was created with 1 material (res furniture material living space).",
               "InternalMassDefinition 'res furniture mass unfinished basement space' has been assigned construction 'res furniture construction unfinished basement space'.",
               "Assigned internal mass object 'res furniture mass unfinished basement space' to space 'unfinished basement space'.",
               "Removed construction 'WallIntFinUninsFin' because it was orphaned.",
               "Removed construction 'WallIntUnfinUninsUnfin' because it was orphaned."
            ],
            "step_result" : "Success",
            "step_values" : [
               {
                  "name" : "thick_in",
                  "value" : 12
               },
               {
                  "name" : "conductivity",
                  "value" : 5.29
               },
               {
                  "name" : "density",
                  "value" : 49
               },
               {
                  "name" : "framing_factor",
                  "value" : 0.075999999999999998
               },
               {
                  "name" : "furring_r",
                  "value" : 0
               },
               {
                  "name" : "furring_cavity_depth_in",
                  "value" : 1
               },
               {
                  "name" : "furring_spacing",
                  "value" : 24
               },
               {
                  "name" : "drywall_thick_in",
                  "value" : 0.5
               },
               {
                  "name" : "osb_thick_in",
                  "value" : 0.5
               },
               {
                  "name" : "rigid_r",
                  "value" : 0
               },
               {
                  "name" : "exterior_finish",
                  "value" : "Vinyl, Light"
               }
            ],
            "step_warnings" : []
         }
      },
      {
         "arguments" : {
            "ceiling_cavity_r" : "0",
            "ceiling_framing_factor" : "0.13",
            "ceiling_install_grade" : "1",
            "ceiling_joist_height_in" : "9.25",
            "slab_whole_r" : "0",
            "wall_cavity_depth_in" : "0",
            "wall_cavity_r" : "0",
            "wall_drywall_thick_in" : "0.5",
            "wall_filled_cavity" : "true",
            "wall_framing_factor" : "0",
            "wall_ins_height" : "0",
            "wall_install_grade" : "1",
            "wall_rigid_r" : "0"
         },
         "measure_dir_name" : "ResidentialConstructionsUnfinishedBasement",
         "result" : {
            "completed_at" : "20200410T133503Z",
            "measure_class_name" : "ProcessConstructionsUnfinishedBasement",
            "measure_display_name" : "Set Residential Unfinished Basement Constructions",
            "measure_name" : "process_constructions_unfinished_basement",
            "measure_taxonomy" : "Envelope.Opaque",
            "measure_type" : "ModelMeasure",
            "measure_uid" : "ebc21070-2d4b-4a2a-bd15-f18bf3e77b49",
            "measure_version_id" : "4c166c62-bd57-4a68-9ff9-a8ffbf67f17d",
            "measure_version_modified" : "20200324T183311Z",
            "measure_xml_checksum" : "1E963D9C",
            "started_at" : "20200410T133503Z",
            "stderr" : "",
            "stdout" : "",
            "step_errors" : [],
            "step_files" : [],
            "step_info" : [
               "Material 'Concrete 8.0 in.' was created.",
               "Construction 'WallFndGrndUnfinB' was created with 2 materials (Concrete 8.0 in. | Drywall 0.5 in.).",
               "Surface 'Surface 20' has been assigned construction 'WallFndGrndUnfinB'.",
               "Surface 'Surface 22' has been assigned construction 'WallFndGrndUnfinB'.",
               "Construction 'WallFndGrndUnfinB Reversed' was created with 2 materials (Drywall 0.5 in. | Concrete 8.0 in.).",
               "Surface 'Surface 22' has been assigned construction 'WallFndGrndUnfinB Reversed'.",
               "Surface 'Surface 23' has been assigned construction 'WallFndGrndUnfinB'.",
               "Material 'Concrete 4.0 in.' was created.",
               "Construction 'FloorFndGrndUnfinB' was created with 1 material (Concrete 4.0 in.).",
               "Surface 'Surface 19' has been assigned construction 'FloorFndGrndUnfinB'.",
               "Construction 'WallFndGrndUnfinB 1' was created with 2 materials (Concrete 8.0 in. | Drywall 0.5 in.).",
               "Surface 'Surface 15' has been assigned construction 'WallFndGrndUnfinB 1'.",
               "Construction 'WallFndGrndUnfinB Reversed' was created with 2 materials (Drywall 0.5 in. | Concrete 8.0 in.).",
               "Surface 'Surface 15' has been assigned construction 'WallFndGrndUnfinB Reversed'.",
               "Surface 'Surface 14' has been assigned construction 'WallFndGrndUnfinB 1'.",
               "Surface 'Surface 16' has been assigned construction 'WallFndGrndUnfinB 1'.",
               "Surface 'Surface 16' has been assigned construction 'WallFndGrndUnfinB Reversed'.",
               "Construction 'FloorFndGrndUnfinB 1' was created with 1 material (Concrete 4.0 in.).",
               "Surface 'Surface 13' has been assigned construction 'FloorFndGrndUnfinB 1'.",
               "Material 'FloorIns' was created.",
               "Construction 'FloorUnfinBInsFin' was created with 4 materials (FloorIns | RoofSheathing | Wood Floor | Floor Covering).",
               "Surface 'Surface 24' has been assigned construction 'FloorUnfinBInsFin'.",
               "Construction 'FloorUnfinBInsFin Reversed' was created with 4 materials (Floor Covering | Wood Floor | RoofSheathing | FloorIns).",
               "Surface 'Surface 1' has been assigned construction 'FloorUnfinBInsFin Reversed'."
            ],
            "step_result" : "Success",
            "step_values" : [
               {
                  "name" : "wall_ins_height",
                  "value" : 0
               },
               {
                  "name" : "wall_cavity_r",
                  "value" : 0
               },
               {
                  "name" : "wall_install_grade",
                  "value" : "1"
               },
               {
                  "name" : "wall_cavity_depth_in",
                  "value" : 0
               },
               {
                  "name" : "wall_filled_cavity",
                  "value" : true
               },
               {
                  "name" : "wall_framing_factor",
                  "value" : 0
               },
               {
                  "name" : "wall_rigid_r",
                  "value" : 0
               },
               {
                  "name" : "wall_drywall_thick_in",
                  "value" : 0.5
               },
               {
                  "name" : "ceiling_cavity_r",
                  "value" : 0
               },
               {
                  "name" : "ceiling_install_grade",
                  "value" : "1"
               },
               {
                  "name" : "ceiling_framing_factor",
                  "value" : 0.13
               },
               {
                  "name" : "ceiling_joist_height_in",
                  "value" : 9.25
               },
               {
                  "name" : "slab_whole_r",
                  "value" : 0
               }
            ],
            "step_warnings" : []
         }
      },
      {
         "arguments" : {
            "cavity_r" : "0",
            "framing_factor" : "0.13",
            "install_grade" : "1",
            "joist_height_in" : "5.5"
         },
         "measure_dir_name" : "ResidentialConstructionsFloors",
         "result" : {
            "completed_at" : "20200410T133503Z",
            "measure_class_name" : "ProcessConstructionsFloors",
            "measure_display_name" : "Set Residential Floor Construction",
            "measure_name" : "process_constructions_floors",
            "measure_taxonomy" : "Envelope.Opaque",
            "measure_type" : "ModelMeasure",
            "measure_uid" : "65e577ab-327e-4afa-af30-0f6b4e6b1ebf",
            "measure_version_id" : "54db01d7-8cb4-4d3c-bcff-f911ef246735",
            "measure_version_modified" : "20190701T173017Z",
            "measure_xml_checksum" : "1E963D9C",
            "started_at" : "20200410T133503Z",
            "stderr" : "",
            "stdout" : "",
            "step_errors" : [],
            "step_files" : [],
            "step_info" : [
               "Material 'FloorFinStudAndAirFloor 1' was created.",
               "Construction 'FloorUnfinUninsUnfin' was created with 2 materials (FloorFinStudAndAirFloor 1 | RoofSheathing).",
               "Surface 'Surface 7' has been assigned construction 'FloorUnfinUninsUnfin'."
            ],
            "step_result" : "Success",
            "step_values" : [
               {
                  "name" : "cavity_r",
                  "value" : 0
               },
               {
                  "name" : "install_grade",
                  "value" : "1"
               },
               {
                  "name" : "framing_factor",
                  "value" : 0.13
               },
               {
                  "name" : "joist_height_in",
                  "value" : 5.5
               }
            ],
            "step_warnings" : []
         }
      },
      {
         "arguments" : {
            "skylight_cool_shade_mult" : "0.7",
            "skylight_heat_shade_mult" : "0.7",
            "skylight_shgc" : "0.3",
            "skylight_ufactor" : "0.37",
            "window_cool_shade_mult" : "0.7",
            "window_heat_shade_mult" : "0.7",
            "window_shgc" : "0.63",
            "window_ufactor" : "0.84"
         },
         "measure_dir_name" : "ResidentialConstructionsWindowsSkylights",
         "result" : {
            "completed_at" : "20200410T133504Z",
            "measure_class_name" : "ProcessConstructionsWindowsSkylights",
            "measure_display_name" : "Set Residential Window/Skylight Construction",
            "measure_name" : "process_constructions_windows_skylights",
            "measure_taxonomy" : "Envelope.Fenestration",
            "measure_type" : "ModelMeasure",
            "measure_uid" : "648dc42f-f079-4d97-913e-6dc3e19560b1",
            "measure_version_id" : "e794f109-ad20-4bcc-8ff1-492a565d7a4a",
            "measure_version_modified" : "20200324T183312Z",
            "measure_xml_checksum" : "6FAFA9DE",
            "started_at" : "20200410T133504Z",
            "stderr" : "",
            "stdout" : "[openstudio.model.YearDescription] <1> 'UseWeatherFile' is not yet a supported option for YearDescription\n",
            "step_errors" : [],
            "step_files" : [],
            "step_final_condition" : "All windows and skylights have been assigned constructions.",
            "step_info" : [
               "Material 'WindowMaterial' was created.",
               "Construction 'WindowConstruction' was created with 1 material (WindowMaterial).",
               "SubSurface 'Surface 5 - Window 1' has been assigned construction 'WindowConstruction'.",
               "SubSurface 'Surface 2 - Window 2' has been assigned construction 'WindowConstruction'.",
               "SubSurface 'Surface 5 - Window 4' has been assigned construction 'WindowConstruction'.",
               "SubSurface 'Surface 5 - Window 2' has been assigned construction 'WindowConstruction'.",
               "SubSurface 'Surface 5 - Window 3' has been assigned construction 'WindowConstruction'.",
               "SubSurface 'Surface 2 - Window 1' has been assigned construction 'WindowConstruction'.",
               "SubSurface 'Surface 5 - Window 5' has been assigned construction 'WindowConstruction'.",
               "SubSurface 'Surface 2 - Window 3' has been assigned construction 'WindowConstruction'.",
               "SubSurface 'Surface 2 - Window 6' has been assigned construction 'WindowConstruction'.",
               "SubSurface 'Surface 2 - Window 4' has been assigned construction 'WindowConstruction'.",
               "SubSurface 'Surface 2 - Window 5' has been assigned construction 'WindowConstruction'.",
               "SubSurface 'Surface 2 - Window 7' has been assigned construction 'WindowConstruction'.",
               "SubSurface 'Surface 2 - Window 8' has been assigned construction 'WindowConstruction'.",
               "Construction and interior shades added to 13 window(s)."
            ],
            "step_result" : "Success",
            "step_values" : [
               {
                  "name" : "window_ufactor",
                  "value" : 0.83999999999999997
               },
               {
                  "name" : "window_shgc",
                  "value" : 0.63
               },
               {
                  "name" : "window_heat_shade_mult",
                  "value" : 0.69999999999999996
               },
               {
                  "name" : "window_cool_shade_mult",
                  "value" : 0.69999999999999996
               },
               {
                  "name" : "skylight_ufactor",
                  "value" : 0.37
               },
               {
                  "name" : "skylight_shgc",
                  "value" : 0.29999999999999999
               },
               {
                  "name" : "skylight_heat_shade_mult",
                  "value" : 0.69999999999999996
               },
               {
                  "name" : "skylight_cool_shade_mult",
                  "value" : 0.69999999999999996
               }
            ],
            "step_warnings" : []
         }
      },
      {
         "arguments" : {
            "ufactor" : "0.2"
         },
         "measure_dir_name" : "ResidentialConstructionsDoors",
         "result" : {
            "completed_at" : "20200410T133504Z",
            "measure_class_name" : "ProcessConstructionsDoors",
            "measure_display_name" : "Set Residential Door Construction",
            "measure_name" : "process_constructions_doors",
            "measure_taxonomy" : "Envelope.Fenestration",
            "measure_type" : "ModelMeasure",
            "measure_uid" : "b78f10fa-b38d-4de2-86e9-344a78e68847",
            "measure_version_id" : "423aabac-34c3-436e-a3ea-1d30174815f1",
            "measure_version_modified" : "20200324T183310Z",
            "measure_xml_checksum" : "6FAFA9DE",
            "started_at" : "20200410T133504Z",
            "stderr" : "",
            "stdout" : "",
            "step_errors" : [],
            "step_files" : [],
            "step_info" : [
               "Material 'DoorMaterial' was created.",
               "Construction 'UninsDoor' was created with 1 material (DoorMaterial).",
               "SubSurface 'unit 1 - Surface 11 - Door' has been assigned construction 'UninsDoor'."
            ],
            "step_result" : "Success",
            "step_values" : [
               {
                  "name" : "ufactor",
                  "value" : 0.20000000000000001
               }
            ],
            "step_warnings" : []
         }
      },
      {
         "arguments" : {
            "capacity" : "4.5",
            "energy_factor" : "0.92",
            "fuel_type" : "electric",
            "location" : "auto",
            "offcyc_power" : "0",
            "oncyc_power" : "0",
            "recovery_efficiency" : "0.98",
            "setpoint_temp" : "125",
            "tank_volume" : "auto"
         },
         "measure_dir_name" : "ResidentialHotWaterHeaterTank",
         "result" : {
            "completed_at" : "20200410T133505Z",
            "measure_class_name" : "ResidentialHotWaterHeaterTank",
            "measure_display_name" : "Set Residential Tank Water Heater",
            "measure_name" : "residential_hot_water_heater_tank",
            "measure_taxonomy" : "Service Water Heating.Water Heating",
            "measure_type" : "ModelMeasure",
            "measure_uid" : "0f2214ac-12ca-4350-9942-8d1fb1277608",
            "measure_version_id" : "da1b6e1b-2fbf-49a0-89f4-83dfc3e1b5ed",
            "measure_version_modified" : "20200324T183313Z",
            "measure_xml_checksum" : "9882CBDB",
            "started_at" : "20200410T133505Z",
            "stderr" : "",
            "stdout" : "",
            "step_errors" : [],
            "step_files" : [],
            "step_final_condition" : "Water heater 'res wh' added to plant loop 'Domestic Hot Water Loop', with a capacity of 4.5 kBtu/hr and an actual tank volume of 36.0 gal.",
            "step_info" : [ "A new plant loop for DHW will be added to the model" ],
            "step_initial_condition" : "No water heater model currently exists",
            "step_result" : "Success",
            "step_values" : [
               {
                  "name" : "fuel_type",
                  "value" : "electric"
               },
               {
                  "name" : "tank_volume",
                  "value" : "auto"
               },
               {
                  "name" : "setpoint_temp",
                  "value" : 125
               },
               {
                  "name" : "location",
                  "value" : "auto"
               },
               {
                  "name" : "capacity",
                  "value" : "4.5"
               },
               {
                  "name" : "energy_factor",
                  "value" : "0.92"
               },
               {
                  "name" : "recovery_efficiency",
                  "value" : 0.97999999999999998
               },
               {
                  "name" : "offcyc_power",
                  "value" : 0
               },
               {
                  "name" : "oncyc_power",
                  "value" : 0
               }
            ],
            "step_warnings" : []
         }
      },
      {
         "arguments" : {
            "bath_mult" : "0.5",
            "plant_loop" : "auto",
            "schedule_day_shift" : "31",
            "shower_mult" : "0.5",
            "sink_mult" : "0.5"
         },
         "measure_dir_name" : "ResidentialHotWaterFixtures",
         "result" : {
            "completed_at" : "20200410T133505Z",
            "measure_class_name" : "ResidentialHotWaterFixtures",
            "measure_display_name" : "Set Residential Hot Water Fixtures",
            "measure_name" : "residential_hot_water_fixtures",
            "measure_taxonomy" : "Service Water Heating.Water Use",
            "measure_type" : "ModelMeasure",
            "measure_uid" : "6159fd36-6bfa-4907-9200-9cb852d50799",
            "measure_version_id" : "4c191abf-df77-4d31-bfd4-7abc20176381",
            "measure_version_modified" : "20200324T183313Z",
            "measure_xml_checksum" : "A6ACD89C",
            "started_at" : "20200410T133505Z",
            "stderr" : "",
            "stdout" : "[openstudio.model.YearDescription] <1> 'UseWeatherFile' is not yet a supported option for YearDescription\n[openstudio.model.YearDescription] <1> 'UseWeatherFile' is not yet a supported option for YearDescription\n[openstudio.model.YearDescription] <1> 'UseWeatherFile' is not yet a supported option for YearDescription\n",
            "step_errors" : [],
            "step_files" : [],
            "step_final_condition" : "Shower, sinks, and bath fixtures drawing 13.0, 11.6, and 3.3 gal/day respectively have been added to plant loop 'Domestic Hot Water Loop' and assigned to space 'living space'.",
            "step_info" : [],
            "step_result" : "Success",
            "step_values" : [
               {
                  "name" : "shower_mult",
                  "value" : 0.5
               },
               {
                  "name" : "sink_mult",
                  "value" : 0.5
               },
               {
                  "name" : "bath_mult",
                  "value" : 0.5
               },
               {
                  "name" : "plant_loop",
                  "value" : "auto"
               },
               {
                  "name" : "schedule_day_shift",
                  "value" : 31
               }
            ],
            "step_warnings" : []
         }
      },
      {
         "arguments" : {
            "dist_ins" : "0",
            "dist_layout" : "trunk and branch",
            "pipe_mat" : "copper",
            "recirc_type" : "none",
            "space" : "interior"
         },
         "measure_dir_name" : "ResidentialHotWaterDistribution",
         "result" : {
            "completed_at" : "20200410T133506Z",
            "measure_class_name" : "ResidentialHotWaterDistribution",
            "measure_display_name" : "Set Residential Hot Water Distribution",
            "measure_name" : "residential_hot_water_distribution",
            "measure_taxonomy" : "Service Water Heating.Distribution",
            "measure_type" : "ModelMeasure",
            "measure_uid" : "4615ccb7-3ce5-4627-b7c2-a7fea9c4af87",
            "measure_version_id" : "8192618f-1dc0-433c-a937-b272f2e441d3",
            "measure_version_modified" : "20200324T183313Z",
            "measure_xml_checksum" : "D2231FB9",
            "started_at" : "20200410T133506Z",
            "stderr" : "",
            "stdout" : "[openstudio.model.YearDescription] <1> 'UseWeatherFile' is not yet a supported option for YearDescription\n",
            "step_errors" : [],
            "step_files" : [],
            "step_final_condition" : "A new copper, trunk and branch DHW distribution system has been assigned to the location interior of the home.",
            "step_info" : [],
            "step_result" : "Success",
            "step_values" : [
               {
                  "name" : "pipe_mat",
                  "value" : "copper"
               },
               {
                  "name" : "dist_layout",
                  "value" : "trunk and branch"
               },
               {
                  "name" : "space",
                  "value" : "interior"
               },
               {
                  "name" : "recirc_type",
                  "value" : "none"
               },
               {
                  "name" : "dist_ins",
                  "value" : 0
               }
            ],
            "step_warnings" : []
         }
      },
      {
         "arguments" : {
            "season_end_month" : "Dec",
            "season_start_month" : "Jan",
            "use_auto_season" : "false",
            "weekday_offset_magnitude" : "0",
            "weekday_offset_schedule" : "0,0,0,0,0,0,0,0,0,0,0,0,0,0,0,0,0,0,0,0,0,0,0,0",
            "weekday_setpoint" : "70",
            "weekend_offset_magnitude" : "0",
            "weekend_offset_schedule" : "0,0,0,0,0,0,0,0,0,0,0,0,0,0,0,0,0,0,0,0,0,0,0,0",
            "weekend_setpoint" : "70"
         },
         "measure_dir_name" : "ResidentialHVACHeatingSetpoints",
         "result" : {
            "completed_at" : "20200410T133506Z",
            "measure_class_name" : "ProcessHeatingSetpoints",
            "measure_display_name" : "Set Residential Heating Setpoints and Schedules",
            "measure_name" : "process_heating_setpoints",
            "measure_taxonomy" : "HVAC.HVAC Controls",
            "measure_type" : "ModelMeasure",
            "measure_uid" : "2b167665-f760-462d-8c9d-1d909da7b628",
            "measure_version_id" : "6d9db5e9-8658-484e-b894-9e0683724f42",
            "measure_version_modified" : "20200324T183316Z",
            "measure_xml_checksum" : "2C877DEB",
            "started_at" : "20200410T133506Z",
            "stderr" : "",
            "stdout" : "[openstudio.model.YearDescription] <1> 'UseWeatherFile' is not yet a supported option for YearDescription\n[openstudio.model.YearDescription] <1> 'UseWeatherFile' is not yet a supported option for YearDescription\n[openstudio.model.YearDescription] <1> 'UseWeatherFile' is not yet a supported option for YearDescription\n",
            "step_errors" : [],
            "step_files" : [],
            "step_info" : [
               "Created new thermostat living zone temperature setpoint for living zone.",
               "Set a dummy cooling setpoint schedule for living zone temperature setpoint.",
               "Set the heating setpoint schedule for living zone temperature setpoint."
            ],
            "step_result" : "Success",
            "step_values" : [
               {
                  "name" : "weekday_setpoint",
                  "value" : "70"
               },
               {
                  "name" : "weekend_setpoint",
                  "value" : "70"
               },
               {
                  "name" : "weekday_offset_magnitude",
                  "value" : 0
               },
               {
                  "name" : "weekend_offset_magnitude",
                  "value" : 0
               },
               {
                  "name" : "weekday_offset_schedule",
                  "value" : "0,0,0,0,0,0,0,0,0,0,0,0,0,0,0,0,0,0,0,0,0,0,0,0"
               },
               {
                  "name" : "weekend_offset_schedule",
                  "value" : "0,0,0,0,0,0,0,0,0,0,0,0,0,0,0,0,0,0,0,0,0,0,0,0"
               },
               {
                  "name" : "use_auto_season",
                  "value" : false
               },
               {
                  "name" : "season_start_month",
                  "value" : "Jan"
               },
               {
                  "name" : "season_end_month",
                  "value" : "Dec"
               }
            ],
            "step_warnings" : []
         }
      },
      {
         "arguments" : {
            "season_end_month" : "Dec",
            "season_start_month" : "Jan",
            "use_auto_season" : "false",
            "weekday_offset_magnitude" : "0",
            "weekday_offset_schedule" : "0,0,0,0,0,0,0,0,0,0,0,0,0,0,0,0,0,0,0,0,0,0,0,0",
            "weekday_setpoint" : "70",
            "weekend_offset_magnitude" : "0",
            "weekend_offset_schedule" : "0,0,0,0,0,0,0,0,0,0,0,0,0,0,0,0,0,0,0,0,0,0,0,0",
            "weekend_setpoint" : "70"
         },
         "measure_dir_name" : "ResidentialHVACCoolingSetpoints",
         "result" : {
            "completed_at" : "20200410T133507Z",
            "measure_class_name" : "ProcessCoolingSetpoints",
            "measure_display_name" : "Set Residential Cooling Setpoints and Schedules",
            "measure_name" : "process_cooling_setpoints",
            "measure_taxonomy" : "HVAC.HVAC Controls",
            "measure_type" : "ModelMeasure",
            "measure_uid" : "2daa9d28-8891-4074-a1d1-bce3cb3d7ac6",
            "measure_version_id" : "f8680ca0-cd69-4f24-8145-b61dc7de4f5c",
            "measure_version_modified" : "20200324T183315Z",
            "measure_xml_checksum" : "356BE47F",
            "started_at" : "20200410T133506Z",
            "stderr" : "",
            "stdout" : "[openstudio.model.YearDescription] <1> 'UseWeatherFile' is not yet a supported option for YearDescription\n[openstudio.model.YearDescription] <1> 'UseWeatherFile' is not yet a supported option for YearDescription\n[openstudio.model.YearDescription] <1> 'UseWeatherFile' is not yet a supported option for YearDescription\n",
            "step_errors" : [],
            "step_files" : [],
            "step_info" : [
               "Found existing thermostat living zone temperature setpoint for living zone.",
               "Set the cooling setpoint schedule for living zone temperature setpoint."
            ],
            "step_result" : "Success",
            "step_values" : [
               {
                  "name" : "weekday_setpoint",
                  "value" : "70"
               },
               {
                  "name" : "weekend_setpoint",
                  "value" : "70"
               },
               {
                  "name" : "weekday_offset_magnitude",
                  "value" : 0
               },
               {
                  "name" : "weekend_offset_magnitude",
                  "value" : 0
               },
               {
                  "name" : "weekday_offset_schedule",
                  "value" : "0,0,0,0,0,0,0,0,0,0,0,0,0,0,0,0,0,0,0,0,0,0,0,0"
               },
               {
                  "name" : "weekend_offset_schedule",
                  "value" : "0,0,0,0,0,0,0,0,0,0,0,0,0,0,0,0,0,0,0,0,0,0,0,0"
               },
               {
                  "name" : "use_auto_season",
                  "value" : false
               },
               {
                  "name" : "season_start_month",
                  "value" : "Jan"
               },
               {
                  "name" : "season_end_month",
                  "value" : "Dec"
               }
            ],
            "step_warnings" : []
         }
      },
      {
         "arguments" : {
            "control" : "typical",
            "cooling_setpoint_offset" : "0",
            "coverage" : "NA",
            "monthly_sch" : "1.248, 1.257, 0.993, 0.989, 0.993, 0.827, 0.821, 0.821, 0.827, 0.99, 0.987, 1.248",
            "mult" : "1",
            "power" : "45",
            "specified_num" : "1",
            "use_benchmark_energy" : "true",
            "weekday_sch" : "0.04, 0.037, 0.037, 0.036, 0.033, 0.036, 0.043, 0.047, 0.034, 0.023, 0.024, 0.025, 0.024, 0.028, 0.031, 0.032, 0.039, 0.053, 0.063, 0.067, 0.071, 0.069, 0.059, 0.05",
            "weekend_sch" : "0.04, 0.037, 0.037, 0.036, 0.033, 0.036, 0.043, 0.047, 0.034, 0.023, 0.024, 0.025, 0.024, 0.028, 0.031, 0.032, 0.039, 0.053, 0.063, 0.067, 0.071, 0.069, 0.059, 0.05"
         },
         "measure_dir_name" : "ResidentialHVACCeilingFan",
         "result" : {
            "completed_at" : "20200410T133507Z",
            "measure_class_name" : "ProcessCeilingFan",
            "measure_display_name" : "Set Residential Ceiling Fan",
            "measure_name" : "process_ceiling_fan",
            "measure_taxonomy" : "HVAC.Cooling",
            "measure_type" : "ModelMeasure",
            "measure_uid" : "f65edfd9-ff4f-4f08-a245-ea48b3b3c88e",
            "measure_version_id" : "386db403-dce5-45ce-a440-916d700f194b",
            "measure_version_modified" : "20200324T183314Z",
            "measure_xml_checksum" : "D48F381B",
            "started_at" : "20200410T133507Z",
            "stderr" : "",
            "stdout" : "[openstudio.model.YearDescription] <1> 'UseWeatherFile' is not yet a supported option for YearDescription\n[openstudio.model.YearDescription] <1> 'UseWeatherFile' is not yet a supported option for YearDescription\n",
            "step_errors" : [],
            "step_files" : [],
            "step_info" : [],
            "step_result" : "Success",
            "step_values" : [
               {
                  "name" : "coverage",
                  "value" : "NA"
               },
               {
                  "name" : "specified_num",
                  "value" : "1"
               },
               {
                  "name" : "power",
                  "value" : 45
               },
               {
                  "name" : "control",
                  "value" : "typical"
               },
               {
                  "name" : "use_benchmark_energy",
                  "value" : true
               },
               {
                  "name" : "mult",
                  "value" : 1
               },
               {
                  "name" : "cooling_setpoint_offset",
                  "value" : 0
               },
               {
                  "name" : "weekday_sch",
                  "value" : "0.04, 0.037, 0.037, 0.036, 0.033, 0.036, 0.043, 0.047, 0.034, 0.023, 0.024, 0.025, 0.024, 0.028, 0.031, 0.032, 0.039, 0.053, 0.063, 0.067, 0.071, 0.069, 0.059, 0.05"
               },
               {
                  "name" : "weekend_sch",
                  "value" : "0.04, 0.037, 0.037, 0.036, 0.033, 0.036, 0.043, 0.047, 0.034, 0.023, 0.024, 0.025, 0.024, 0.028, 0.031, 0.032, 0.039, 0.053, 0.063, 0.067, 0.071, 0.069, 0.059, 0.05"
               },
               {
                  "name" : "monthly_sch",
                  "value" : "1.248, 1.257, 0.993, 0.989, 0.993, 0.827, 0.821, 0.821, 0.827, 0.99, 0.987, 1.248"
               }
            ],
            "step_warnings" : []
         }
      },
      {
         "arguments" : {
            "location" : "auto",
            "monthly_sch" : "0.837, 0.835, 1.084, 1.084, 1.084, 1.096, 1.096, 1.096, 1.096, 0.931, 0.925, 0.837",
            "mult" : "1.0",
            "rated_annual_energy" : "434.0",
            "weekday_sch" : "0.040, 0.039, 0.038, 0.037, 0.036, 0.036, 0.038, 0.040, 0.041, 0.041, 0.040, 0.040, 0.042, 0.042, 0.042, 0.041, 0.044, 0.048, 0.050, 0.048, 0.047, 0.046, 0.044, 0.041",
            "weekend_sch" : "0.040, 0.039, 0.038, 0.037, 0.036, 0.036, 0.038, 0.040, 0.041, 0.041, 0.040, 0.040, 0.042, 0.042, 0.042, 0.041, 0.044, 0.048, 0.050, 0.048, 0.047, 0.046, 0.044, 0.041"
         },
         "measure_dir_name" : "ResidentialApplianceRefrigerator",
         "result" : {
            "completed_at" : "20200410T133508Z",
            "measure_class_name" : "ResidentialRefrigerator",
            "measure_display_name" : "Set Residential Refrigerator",
            "measure_name" : "residential_refrigerator",
            "measure_taxonomy" : "Equipment.Electric Equipment",
            "measure_type" : "ModelMeasure",
            "measure_uid" : "f0259bdc-1391-41eb-80eb-efc10bd1bc02",
            "measure_version_id" : "adf65169-ff16-49fb-b28c-3e65f886c947",
            "measure_version_modified" : "20200324T183310Z",
            "measure_xml_checksum" : "126F1C43",
            "started_at" : "20200410T133507Z",
            "stderr" : "",
            "stdout" : "[openstudio.model.YearDescription] <1> 'UseWeatherFile' is not yet a supported option for YearDescription\n",
            "step_errors" : [],
            "step_files" : [],
            "step_final_condition" : "A refrigerator with 434 kWhs annual energy consumption has been assigned to space 'living space'.",
            "step_info" : [],
            "step_result" : "Success",
            "step_values" : [
               {
                  "name" : "rated_annual_energy",
                  "value" : 434
               },
               {
                  "name" : "mult",
                  "value" : 1
               },
               {
                  "name" : "weekday_sch",
                  "value" : "0.040, 0.039, 0.038, 0.037, 0.036, 0.036, 0.038, 0.040, 0.041, 0.041, 0.040, 0.040, 0.042, 0.042, 0.042, 0.041, 0.044, 0.048, 0.050, 0.048, 0.047, 0.046, 0.044, 0.041"
               },
               {
                  "name" : "weekend_sch",
                  "value" : "0.040, 0.039, 0.038, 0.037, 0.036, 0.036, 0.038, 0.040, 0.041, 0.041, 0.040, 0.040, 0.042, 0.042, 0.042, 0.041, 0.044, 0.048, 0.050, 0.048, 0.047, 0.046, 0.044, 0.041"
               },
               {
                  "name" : "monthly_sch",
                  "value" : "0.837, 0.835, 1.084, 1.084, 1.084, 1.096, 1.096, 1.096, 1.096, 0.931, 0.925, 0.837"
               },
               {
                  "name" : "location",
                  "value" : "auto"
               }
            ],
            "step_warnings" : []
         }
      },
      {
         "arguments" : {
            "annual_cost" : "24.0",
            "cold_cycle" : "false",
            "drum_volume" : "3.5",
            "fill_sensor" : "false",
            "imef" : "0.95",
            "internal_heater" : "false",
            "location" : "auto",
            "mult_e" : "0.0",
            "mult_hw" : "0.0",
            "plant_loop" : "auto",
            "rated_annual_energy" : "387.0",
            "schedule_day_shift" : "31",
            "test_date" : "2007",
            "thermostatic_control" : "true"
         },
         "measure_dir_name" : "ResidentialApplianceClothesWasher",
         "result" : {
            "completed_at" : "20200410T133508Z",
            "measure_class_name" : "ResidentialClothesWasher",
            "measure_display_name" : "Set Residential Clothes Washer",
            "measure_name" : "residential_clothes_washer",
            "measure_taxonomy" : "Equipment.Electric Equipment",
            "measure_type" : "ModelMeasure",
            "measure_uid" : "640bfdca-ba67-461e-b517-1a7291c22b22",
            "measure_version_id" : "f2ff3735-4abd-4bd1-99b0-cff1da022653",
            "measure_version_modified" : "20200324T183310Z",
            "measure_xml_checksum" : "126F1C43",
            "started_at" : "20200410T133508Z",
            "stderr" : "",
            "stdout" : "",
            "step_errors" : [],
            "step_files" : [],
            "step_final_condition" : "No clothes washer has been assigned.",
            "step_info" : [],
            "step_result" : "Success",
            "step_values" : [
               {
                  "name" : "imef",
                  "value" : 0.94999999999999996
               },
               {
                  "name" : "rated_annual_energy",
                  "value" : 387
               },
               {
                  "name" : "annual_cost",
                  "value" : 24
               },
               {
                  "name" : "test_date",
                  "value" : 2007
               },
               {
                  "name" : "drum_volume",
                  "value" : 3.5
               },
               {
                  "name" : "cold_cycle",
                  "value" : false
               },
               {
                  "name" : "thermostatic_control",
                  "value" : true
               },
               {
                  "name" : "internal_heater",
                  "value" : false
               },
               {
                  "name" : "fill_sensor",
                  "value" : false
               },
               {
                  "name" : "mult_e",
                  "value" : 0
               },
               {
                  "name" : "mult_hw",
                  "value" : 0
               },
               {
                  "name" : "location",
                  "value" : "auto"
               },
               {
                  "name" : "plant_loop",
                  "value" : "auto"
               },
               {
                  "name" : "schedule_day_shift",
                  "value" : 31
               }
            ],
            "step_warnings" : []
         }
      },
      {
         "arguments" : {
            "cef" : "2.70",
            "fuel_split" : "1.0",
            "fuel_type" : "electric",
            "location" : "auto",
            "mult" : "0.0"
         },
         "measure_dir_name" : "ResidentialApplianceClothesDryer",
         "result" : {
            "completed_at" : "20200410T133508Z",
            "measure_class_name" : "ResidentialClothesDryer",
            "measure_display_name" : "Set Residential Clothes Dryer",
            "measure_name" : "residential_clothes_dryer",
            "measure_taxonomy" : "Equipment.Gas Equipment",
            "measure_type" : "ModelMeasure",
            "measure_uid" : "0ed6fb35-c3e0-4a33-a397-ce4cec92d96e",
            "measure_version_id" : "370bda27-c9d0-42cd-b2c2-4682b2925a04",
            "measure_version_modified" : "20200324T183310Z",
            "measure_xml_checksum" : "25A40D75",
            "started_at" : "20200410T133508Z",
            "stderr" : "",
            "stdout" : "",
            "step_errors" : [],
            "step_files" : [],
            "step_final_condition" : "No clothes dryer has been assigned.",
            "step_info" : [
               "Could not find clothes washer equipment for 'unit 1', so no clothes dryer added."
            ],
            "step_result" : "Success",
            "step_values" : [
               {
                  "name" : "fuel_type",
                  "value" : "electric"
               },
               {
                  "name" : "cef",
                  "value" : 2.7000000000000002
               },
               {
                  "name" : "fuel_split",
                  "value" : 1
               },
               {
                  "name" : "mult",
                  "value" : 0
               },
               {
                  "name" : "location",
                  "value" : "auto"
               }
            ],
            "step_warnings" : []
         }
      },
      {
         "arguments" : {
            "annual_gas_cost" : "24.0",
            "cold_inlet" : "false",
            "cold_use" : "0.0",
            "has_internal_heater" : "true",
            "location" : "auto",
            "mult_e" : "0.8",
            "mult_hw" : "0.8",
            "num_settings" : "8",
            "plant_loop" : "auto",
            "rated_annual_energy" : "318.0",
            "schedule_day_shift" : "31",
            "test_date" : "2007"
         },
         "measure_dir_name" : "ResidentialApplianceDishwasher",
         "result" : {
            "completed_at" : "20200410T133508Z",
            "measure_class_name" : "ResidentialDishwasher",
            "measure_display_name" : "Set Residential Dishwasher",
            "measure_name" : "residential_dishwasher",
            "measure_taxonomy" : "Equipment.Electric Equipment",
            "measure_type" : "ModelMeasure",
            "measure_uid" : "09ea4570-4666-4a55-812f-5e90091f5325",
            "measure_version_id" : "b19f9611-d6ff-479d-acc2-bb3113ae1985",
            "measure_version_modified" : "20200324T183310Z",
            "measure_xml_checksum" : "126F1C43",
            "started_at" : "20200410T133508Z",
            "stderr" : "",
            "stdout" : "[openstudio.model.YearDescription] <1> 'UseWeatherFile' is not yet a supported option for YearDescription\n",
            "step_errors" : [],
            "step_files" : [],
            "step_final_condition" : "A dishwasher with 83 kWhs annual energy consumption has been added to plant loop 'Domestic Hot Water Loop' and assigned to space 'living space'.",
            "step_info" : [],
            "step_result" : "Success",
            "step_values" : [
               {
                  "name" : "num_settings",
                  "value" : 8
               },
               {
                  "name" : "rated_annual_energy",
                  "value" : 318
               },
               {
                  "name" : "has_internal_heater",
                  "value" : true
               },
               {
                  "name" : "cold_inlet",
                  "value" : false
               },
               {
                  "name" : "cold_use",
                  "value" : 0
               },
               {
                  "name" : "test_date",
                  "value" : 2007
               },
               {
                  "name" : "annual_gas_cost",
                  "value" : 24
               },
               {
                  "name" : "mult_e",
                  "value" : 0.80000000000000004
               },
               {
                  "name" : "mult_hw",
                  "value" : 0.80000000000000004
               },
               {
                  "name" : "location",
                  "value" : "auto"
               },
               {
                  "name" : "plant_loop",
                  "value" : "auto"
               },
               {
                  "name" : "schedule_day_shift",
                  "value" : 31
               }
            ],
            "step_warnings" : []
         }
      },
      {
         "arguments" : {
            "cooktop_ef" : "0.4",
            "fuel_type" : "gas",
            "has_elec_ignition" : "true",
            "location" : "auto",
            "monthly_sch" : "1.097, 1.097, 0.991, 0.987, 0.991, 0.890, 0.896, 0.896, 0.890, 1.085, 1.085, 1.097",
            "mult" : "0.8",
            "oven_ef" : "0.058",
            "weekday_sch" : "0.01490, 0.0120, 0.0102, 0.0096, 0.0107, 0.0187, 0.0306, 0.0355, 0.0356, 0.0341, 0.0378, 0.0438, 0.0451, 0.0413, 0.0413, 0.0586, 0.0942, 0.1252, 0.1162, 0.0802, 0.0448, 0.0239, 0.0191, 0.0166",
            "weekend_sch" : "0.01320, 0.0109, 0.0091, 0.0083, 0.0085, 0.0109, 0.0213, 0.0368, 0.0493, 0.0497, 0.0522, 0.0564, 0.0568, 0.0520, 0.0513, 0.0631, 0.0862, 0.1070, 0.0979, 0.0685, 0.0395, 0.0212, 0.0167, 0.0132"
         },
         "measure_dir_name" : "ResidentialApplianceCookingRange",
         "result" : {
            "completed_at" : "20200410T133509Z",
            "measure_class_name" : "ResidentialCookingRange",
            "measure_display_name" : "Set Residential Cooking Range",
            "measure_name" : "residential_cooking_range",
            "measure_taxonomy" : "Equipment.Gas Equipment",
            "measure_type" : "ModelMeasure",
            "measure_uid" : "68bdcee3-c301-4fe9-a99f-c7d8b5930c89",
            "measure_version_id" : "be87c41b-a4a4-4a7b-84f4-dead6685897e",
            "measure_version_modified" : "20200324T183310Z",
            "measure_xml_checksum" : "25A40D75",
            "started_at" : "20200410T133508Z",
            "stderr" : "",
            "stdout" : "[openstudio.model.YearDescription] <1> 'UseWeatherFile' is not yet a supported option for YearDescription\n",
            "step_errors" : [],
            "step_files" : [],
            "step_final_condition" : "A cooking range with 21 therms and 60 kWhs annual energy consumption has been assigned to space 'living space'.",
            "step_info" : [],
            "step_result" : "Success",
            "step_values" : [
               {
                  "name" : "fuel_type",
                  "value" : "gas"
               },
               {
                  "name" : "cooktop_ef",
                  "value" : 0.40000000000000002
               },
               {
                  "name" : "oven_ef",
                  "value" : 0.058000000000000003
               },
               {
                  "name" : "has_elec_ignition",
                  "value" : true
               },
               {
                  "name" : "mult",
                  "value" : 0.80000000000000004
               },
               {
                  "name" : "weekday_sch",
                  "value" : "0.01490, 0.0120, 0.0102, 0.0096, 0.0107, 0.0187, 0.0306, 0.0355, 0.0356, 0.0341, 0.0378, 0.0438, 0.0451, 0.0413, 0.0413, 0.0586, 0.0942, 0.1252, 0.1162, 0.0802, 0.0448, 0.0239, 0.0191, 0.0166"
               },
               {
                  "name" : "weekend_sch",
[...]
                  "value" : "0.040, 0.039, 0.038, 0.037, 0.036, 0.036, 0.038, 0.040, 0.041, 0.041, 0.040, 0.040, 0.042, 0.042, 0.042, 0.041, 0.044, 0.048, 0.050, 0.048, 0.047, 0.046, 0.044, 0.041"
               },
               {
                  "name" : "fridge_monthly_sch",
                  "value" : "0.837, 0.835, 1.084, 1.084, 1.084, 1.096, 1.096, 1.096, 1.096, 0.931, 0.925, 0.837"
               },
               {
                  "name" : "fridge_location",
                  "value" : "auto"
               },
               {
                  "name" : "freezer_rated_annual_energy",
                  "value" : 935
               },
               {
                  "name" : "freezer_mult",
                  "value" : 1
               },
               {
                  "name" : "freezer_weekday_sch",
                  "value" : "0.040, 0.039, 0.038, 0.037, 0.036, 0.036, 0.038, 0.040, 0.041, 0.041, 0.040, 0.040, 0.042, 0.042, 0.042, 0.041, 0.044, 0.048, 0.050, 0.048, 0.047, 0.046, 0.044, 0.041"
               },
               {
                  "name" : "freezer_weekend_sch",
                  "value" : "0.040, 0.039, 0.038, 0.037, 0.036, 0.036, 0.038, 0.040, 0.041, 0.041, 0.040, 0.040, 0.042, 0.042, 0.042, 0.041, 0.044, 0.048, 0.050, 0.048, 0.047, 0.046, 0.044, 0.041"
               },
               {
                  "name" : "freezer_monthly_sch",
                  "value" : "0.837, 0.835, 1.084, 1.084, 1.084, 1.096, 1.096, 1.096, 1.096, 0.931, 0.925, 0.837"
               },
               {
                  "name" : "freezer_location",
                  "value" : "auto"
               },
               {
                  "name" : "pool_heater_elec_annual_energy",
                  "value" : 0
               },
               {
                  "name" : "pool_heater_elec_mult",
                  "value" : 0
               },
               {
                  "name" : "pool_heater_gas_annual_energy",
                  "value" : 0
               },
               {
                  "name" : "pool_heater_gas_mult",
                  "value" : 0
               },
               {
                  "name" : "pool_pump_annual_energy",
                  "value" : 0
               },
               {
                  "name" : "pool_pump_mult",
                  "value" : 0
               },
               {
                  "name" : "pool_scale_energy",
                  "value" : false
               },
               {
                  "name" : "pool_weekday_sch",
                  "value" : "0.003, 0.003, 0.003, 0.004, 0.008, 0.015, 0.026, 0.044, 0.084, 0.121, 0.127, 0.121, 0.120, 0.090, 0.075, 0.061, 0.037, 0.023, 0.013, 0.008, 0.004, 0.003, 0.003, 0.003"
               },
               {
                  "name" : "pool_weekend_sch",
                  "value" : "0.003, 0.003, 0.003, 0.004, 0.008, 0.015, 0.026, 0.044, 0.084, 0.121, 0.127, 0.121, 0.120, 0.090, 0.075, 0.061, 0.037, 0.023, 0.013, 0.008, 0.004, 0.003, 0.003, 0.003"
               },
               {
                  "name" : "pool_monthly_sch",
                  "value" : "1.154, 1.161, 1.013, 1.010, 1.013, 0.888, 0.883, 0.883, 0.888, 0.978, 0.974, 1.154"
               },
               {
                  "name" : "hot_tub_heater_elec_annual_energy",
                  "value" : 0
               },
               {
                  "name" : "hot_tub_heater_elec_mult",
                  "value" : 0
               },
               {
                  "name" : "hot_tub_heater_gas_annual_energy",
                  "value" : 0
               },
               {
                  "name" : "hot_tub_heater_gas_mult",
                  "value" : 0
               },
               {
                  "name" : "hot_tub_pump_annual_energy",
                  "value" : 0
               },
               {
                  "name" : "hot_tub_pump_mult",
                  "value" : 0
               },
               {
                  "name" : "hot_tub_scale_energy",
                  "value" : false
               },
               {
                  "name" : "hot_tub_weekday_sch",
                  "value" : "0.024, 0.029, 0.024, 0.029, 0.047, 0.067, 0.057, 0.024, 0.024, 0.019, 0.015, 0.014, 0.014, 0.014, 0.024, 0.058, 0.126, 0.122, 0.068, 0.061, 0.051, 0.043, 0.024, 0.024"
               },
               {
                  "name" : "hot_tub_weekend_sch",
                  "value" : "0.024, 0.029, 0.024, 0.029, 0.047, 0.067, 0.057, 0.024, 0.024, 0.019, 0.015, 0.014, 0.014, 0.014, 0.024, 0.058, 0.126, 0.122, 0.068, 0.061, 0.051, 0.043, 0.024, 0.024"
               },
               {
                  "name" : "hot_tub_monthly_sch",
                  "value" : "0.921, 0.928, 0.921, 0.915, 0.921, 1.160, 1.158, 1.158, 1.160, 0.921, 0.915, 0.921"
               },
               {
                  "name" : "well_pump_annual_energy",
                  "value" : 400
               },
               {
                  "name" : "well_pump_mult",
                  "value" : 1
               },
               {
                  "name" : "well_pump_scale_energy",
                  "value" : true
               },
               {
                  "name" : "well_pump_weekday_sch",
                  "value" : "0.044, 0.023, 0.019, 0.015, 0.016, 0.018, 0.026, 0.033, 0.033, 0.032, 0.033, 0.033, 0.032, 0.032, 0.032, 0.033, 0.045, 0.057, 0.066, 0.076, 0.081, 0.086, 0.075, 0.065"
               },
               {
                  "name" : "well_pump_weekend_sch",
                  "value" : "0.044, 0.023, 0.019, 0.015, 0.016, 0.018, 0.026, 0.033, 0.033, 0.032, 0.033, 0.033, 0.032, 0.032, 0.032, 0.033, 0.045, 0.057, 0.066, 0.076, 0.081, 0.086, 0.075, 0.065"
               },
               {
                  "name" : "well_pump_monthly_sch",
                  "value" : "1.154, 1.161, 1.013, 1.010, 1.013, 0.888, 0.883, 0.883, 0.888, 0.978, 0.974, 1.154"
               },
               {
                  "name" : "gas_fireplace_annual_energy",
                  "value" : 60
               },
               {
                  "name" : "gas_fireplace_mult",
                  "value" : 1
               },
               {
                  "name" : "gas_fireplace_scale_energy",
                  "value" : true
               },
               {
                  "name" : "gas_fireplace_weekday_sch",
                  "value" : "0.044, 0.023, 0.019, 0.015, 0.016, 0.018, 0.026, 0.033, 0.033, 0.032, 0.033, 0.033, 0.032, 0.032, 0.032, 0.033, 0.045, 0.057, 0.066, 0.076, 0.081, 0.086, 0.075, 0.065"
               },
               {
                  "name" : "gas_fireplace_weekend_sch",
                  "value" : "0.044, 0.023, 0.019, 0.015, 0.016, 0.018, 0.026, 0.033, 0.033, 0.032, 0.033, 0.033, 0.032, 0.032, 0.032, 0.033, 0.045, 0.057, 0.066, 0.076, 0.081, 0.086, 0.075, 0.065"
               },
               {
                  "name" : "gas_fireplace_monthly_sch",
                  "value" : "1.154, 1.161, 1.013, 1.010, 1.013, 0.888, 0.883, 0.883, 0.888, 0.978, 0.974, 1.154"
               },
               {
                  "name" : "gas_fireplace_location",
                  "value" : "auto"
               },
               {
                  "name" : "gas_grill_annual_energy",
                  "value" : 30
               },
               {
                  "name" : "gas_grill_mult",
                  "value" : 1
               },
               {
                  "name" : "gas_grill_scale_energy",
                  "value" : true
               },
               {
                  "name" : "gas_grill_weekday_sch",
                  "value" : "0.004, 0.001, 0.001, 0.002, 0.007, 0.012, 0.029, 0.046, 0.044, 0.041, 0.044, 0.046, 0.042, 0.038, 0.049, 0.059, 0.110, 0.161, 0.115, 0.070, 0.044, 0.019, 0.013, 0.007"
               },
               {
                  "name" : "gas_grill_weekend_sch",
                  "value" : "0.004, 0.001, 0.001, 0.002, 0.007, 0.012, 0.029, 0.046, 0.044, 0.041, 0.044, 0.046, 0.042, 0.038, 0.049, 0.059, 0.110, 0.161, 0.115, 0.070, 0.044, 0.019, 0.013, 0.007"
               },
               {
                  "name" : "gas_grill_monthly_sch",
                  "value" : "1.097, 1.097, 0.991, 0.987, 0.991, 0.890, 0.896, 0.896, 0.890, 1.085, 1.085, 1.097"
               },
               {
                  "name" : "gas_lighting_annual_energy",
                  "value" : 19
               },
               {
                  "name" : "gas_lighting_mult",
                  "value" : 1
               },
               {
                  "name" : "gas_lighting_scale_energy",
                  "value" : true
               },
               {
                  "name" : "gas_lighting_weekday_sch",
                  "value" : "0.044, 0.023, 0.019, 0.015, 0.016, 0.018, 0.026, 0.033, 0.033, 0.032, 0.033, 0.033, 0.032, 0.032, 0.032, 0.033, 0.045, 0.057, 0.066, 0.076, 0.081, 0.086, 0.075, 0.065"
               },
               {
                  "name" : "gas_lighting_weekend_sch",
                  "value" : "0.044, 0.023, 0.019, 0.015, 0.016, 0.018, 0.026, 0.033, 0.033, 0.032, 0.033, 0.033, 0.032, 0.032, 0.032, 0.033, 0.045, 0.057, 0.066, 0.076, 0.081, 0.086, 0.075, 0.065"
               },
               {
                  "name" : "gas_lighting_monthly_sch",
                  "value" : "1.154, 1.161, 1.013, 1.010, 1.013, 0.888, 0.883, 0.883, 0.888, 0.978, 0.974, 1.154"
               },
               {
                  "name" : "ev_annual_energy",
                  "value" : 1852
               },
               {
                  "name" : "ev_charger_mult",
                  "value" : 1
               },
               {
                  "name" : "ev_charger_weekday_sch",
                  "value" : "0.042, 0.042, 0.042, 0.042, 0.042, 0.042, 0.042, 0.042, 0.042, 0.042, 0.042, 0.042, 0.042, 0.042, 0.042, 0.042, 0.042, 0.042, 0.042, 0.042, 0.042, 0.042, 0.042, 0.042"
               },
               {
                  "name" : "ev_charger_weekend_sch",
                  "value" : "0.042, 0.042, 0.042, 0.042, 0.042, 0.042, 0.042, 0.042, 0.042, 0.042, 0.042, 0.042, 0.042, 0.042, 0.042, 0.042, 0.042, 0.042, 0.042, 0.042, 0.042, 0.042, 0.042, 0.042"
               },
               {
                  "name" : "ev_charger_monthly_sch",
                  "value" : "1, 1, 1, 1, 1, 1, 1, 1, 1, 1, 1, 1"
               }
            ],
            "step_warnings" : []
         }
      },
      {
         "arguments" : {
            "bathroom_exhaust_hour" : "3",
            "clothes_dryer_exhaust" : "0",
            "crawl_ach" : "0",
            "duct_ah_return_frac" : "0.267",
            "duct_ah_supply_frac" : "0.067",
            "duct_location" : "auto",
            "duct_location_frac" : "auto",
            "duct_num_returns" : "auto",
            "duct_r" : "0",
            "duct_return_area_mult" : "1",
            "duct_return_frac" : "0.067",
            "duct_supply_area_mult" : "1",
            "duct_supply_frac" : "0.6",
            "duct_total_leakage" : "0.2",
            "finished_basement_ach" : "0",
            "garage_ach50" : "15",
            "has_fireplace_chimney" : "false",
            "has_water_heater_flue" : "false",
            "is_existing_home" : "true",
            "living_ach50" : "15",
            "mech_vent_ashrae_std" : "2010",
            "mech_vent_cfis_airflow_frac" : "1.0",
            "mech_vent_cfis_open_time" : "20.0",
            "mech_vent_fan_power" : "0",
            "mech_vent_frac_62_2" : "0",
            "mech_vent_infil_credit" : "false",
            "mech_vent_sensible_efficiency" : "0",
            "mech_vent_total_efficiency" : "0",
            "mech_vent_type" : "none",
            "nat_vent_clg_offset" : "1",
            "nat_vent_clg_season" : "true",
            "nat_vent_frac_window_area_openable" : "0.2",
            "nat_vent_frac_windows_open" : "0.33",
            "nat_vent_htg_offset" : "1",
            "nat_vent_htg_season" : "true",
            "nat_vent_max_oa_hr" : "0.0115",
            "nat_vent_max_oa_rh" : "0.7",
            "nat_vent_num_weekdays" : "3",
            "nat_vent_num_weekends" : "0",
            "nat_vent_ovlp_offset" : "1",
            "nat_vent_ovlp_season" : "true",
            "pier_beam_ach" : "100",
            "range_exhaust_hour" : "19",
            "shelter_coef" : "auto",
            "terrain" : "suburban",
            "unfinished_attic_sla" : "0.00333",
            "unfinished_basement_ach" : "0.1"
         },
         "measure_dir_name" : "ResidentialAirflow",
         "result" : {
            "completed_at" : "20200410T133511Z",
            "measure_class_name" : "ResidentialAirflow",
            "measure_display_name" : "Set Residential Airflow",
            "measure_name" : "residential_airflow",
            "measure_taxonomy" : "Envelope.Infiltration",
            "measure_type" : "ModelMeasure",
            "measure_uid" : "7d2adf5c-9995-49be-b662-a23d2452bb36",
            "measure_version_id" : "89dd5089-1742-4d13-ba4b-57629ad05fb2",
            "measure_version_modified" : "20200324T183309Z",
            "measure_xml_checksum" : "19EEDBBB",
            "started_at" : "20200410T133511Z",
            "stderr" : "",
            "stdout" : "[openstudio.model.YearDescription] <1> 'UseWeatherFile' is not yet a supported option for YearDescription\n[openstudio.model.YearDescription] <1> 'UseWeatherFile' is not yet a supported option for YearDescription\n[openstudio.model.YearDescription] <1> 'UseWeatherFile' is not yet a supported option for YearDescription\n[openstudio.model.YearDescription] <1> 'UseWeatherFile' is not yet a supported option for YearDescription\n",
            "step_errors" : [],
            "step_files" : [],
            "step_info" : [ "Either no forced air equipment or ducts in conditioned space." ],
            "step_result" : "Success",
            "step_values" : [
               {
                  "name" : "living_ach50",
                  "value" : 15
               },
               {
                  "name" : "garage_ach50",
                  "value" : 15
               },
               {
                  "name" : "finished_basement_ach",
                  "value" : 0
               },
               {
                  "name" : "unfinished_basement_ach",
                  "value" : 0.10000000000000001
               },
               {
                  "name" : "crawl_ach",
                  "value" : 0
               },
               {
                  "name" : "pier_beam_ach",
                  "value" : 100
               },
               {
                  "name" : "unfinished_attic_sla",
                  "value" : 0.0033300000000000001
               },
               {
                  "name" : "shelter_coef",
                  "value" : "auto"
               },
               {
                  "name" : "has_hvac_flue",
                  "value" : false
               },
               {
                  "name" : "has_water_heater_flue",
                  "value" : false
               },
               {
                  "name" : "has_fireplace_chimney",
                  "value" : false
               },
               {
                  "name" : "terrain",
                  "value" : "suburban"
               },
               {
                  "name" : "mech_vent_type",
                  "value" : "none"
               },
               {
                  "name" : "mech_vent_fan_power",
                  "value" : 0
               },
               {
                  "name" : "mech_vent_total_efficiency",
                  "value" : 0
               },
               {
                  "name" : "mech_vent_sensible_efficiency",
                  "value" : 0
               },
               {
                  "name" : "mech_vent_frac_62_2",
                  "value" : 0
               },
               {
                  "name" : "mech_vent_ashrae_std",
                  "value" : "2010"
               },
               {
                  "name" : "mech_vent_infil_credit",
                  "value" : false
               },
               {
                  "name" : "is_existing_home",
                  "value" : true
               },
               {
                  "name" : "mech_vent_cfis_open_time",
                  "value" : 20
               },
               {
                  "name" : "mech_vent_cfis_airflow_frac",
                  "value" : 1
               },
               {
                  "name" : "range_exhaust_hour",
                  "value" : 19
               },
               {
                  "name" : "bathroom_exhaust_hour",
                  "value" : 3
               },
               {
                  "name" : "clothes_dryer_exhaust",
                  "value" : 0
               },
               {
                  "name" : "nat_vent_htg_offset",
                  "value" : 1
               },
               {
                  "name" : "nat_vent_clg_offset",
                  "value" : 1
               },
               {
                  "name" : "nat_vent_ovlp_offset",
                  "value" : 1
               },
               {
                  "name" : "nat_vent_htg_season",
                  "value" : true
               },
               {
                  "name" : "nat_vent_clg_season",
                  "value" : true
               },
               {
                  "name" : "nat_vent_ovlp_season",
                  "value" : true
               },
               {
                  "name" : "nat_vent_num_weekdays",
                  "value" : 3
               },
               {
                  "name" : "nat_vent_num_weekends",
                  "value" : 0
               },
               {
                  "name" : "nat_vent_frac_windows_open",
                  "value" : 0.33000000000000002
               },
               {
                  "name" : "nat_vent_frac_window_area_openable",
                  "value" : 0.20000000000000001
               },
               {
                  "name" : "nat_vent_max_oa_hr",
                  "value" : 0.0115
               },
               {
                  "name" : "nat_vent_max_oa_rh",
                  "value" : 0.69999999999999996
               },
               {
                  "name" : "duct_location",
                  "value" : "auto"
               },
               {
                  "name" : "duct_total_leakage",
                  "value" : 0.20000000000000001
               },
               {
                  "name" : "duct_supply_frac",
                  "value" : 0.59999999999999998
               },
               {
                  "name" : "duct_return_frac",
                  "value" : 0.067000000000000004
               },
               {
                  "name" : "duct_ah_supply_frac",
                  "value" : 0.067000000000000004
               },
               {
                  "name" : "duct_ah_return_frac",
                  "value" : 0.26700000000000002
               },
               {
                  "name" : "duct_location_frac",
                  "value" : "auto"
               },
               {
                  "name" : "duct_num_returns",
                  "value" : "auto"
               },
               {
                  "name" : "duct_supply_area_mult",
                  "value" : 1
               },
               {
                  "name" : "duct_return_area_mult",
                  "value" : 1
               },
               {
                  "name" : "duct_r",
                  "value" : 0
               }
            ],
            "step_warnings" : [
               "No ducted HVAC equipment was found but ducts were specified. Overriding duct specification."
            ]
         }
      }
   ],
   "updated_at" : "20200410T133603Z"
}
