{
  "completed_at": "20170925T164105Z",
  "completed_status": "Success",
  "created_at": "2017-09-25 16:37:52 +0000",
  "current_step": 5,
  "description": "",
  "eplusout_err": "Program Version,EnergyPlus, Version 8.7.0-78a111df4a, YMD=2017.09.25 16:38,IDD_Version 8.7.0\n   ** Warning ** Site:GroundTemperature:BuildingSurface: Some values fall outside the range of 15-25C.\n   **   ~~~   ** These values may be inappropriate.  Please consult the Input Output Reference for more details.\n   ** Warning ** ProcessScheduleInput: Schedule:Day:Interval=\"RES INFIL_U 1 BATH EXHAUST SCHEDULE ALLDAY1\", Blank Schedule Type Limits Name input -- will not be validated.\n   ** Warning ** ProcessScheduleInput: Schedule:Day:Interval=\"RES INFIL_U 1 BATH EXHAUST SCHEDULE ALLDAY10\", Blank Schedule Type Limits Name input -- will not be validated.\n   ** Warning ** ProcessScheduleInput: Schedule:Day:Interval=\"RES INFIL_U 1 BATH EXHAUST SCHEDULE ALLDAY11\", Blank Schedule Type Limits Name input -- will not be validated.\n   ** Warning ** ProcessScheduleInput: Schedule:Day:Interval=\"RES INFIL_U 1 BATH EXHAUST SCHEDULE ALLDAY12\", Blank Schedule Type Limits Name input -- will not be validated.\n   ** Warning ** ProcessScheduleInput: Schedule:Day:Interval=\"RES INFIL_U 1 BATH EXHAUST SCHEDULE ALLDAY2\", Blank Schedule Type Limits Name input -- will not be validated.\n   ** Warning ** ProcessScheduleInput: Schedule:Day:Interval=\"RES INFIL_U 1 BATH EXHAUST SCHEDULE ALLDAY3\", Blank Schedule Type Limits Name input -- will not be validated.\n   ** Warning ** ProcessScheduleInput: Schedule:Day:Interval=\"RES INFIL_U 1 BATH EXHAUST SCHEDULE ALLDAY4\", Blank Schedule Type Limits Name input -- will not be validated.\n   ** Warning ** ProcessScheduleInput: Schedule:Day:Interval=\"RES INFIL_U 1 BATH EXHAUST SCHEDULE ALLDAY5\", Blank Schedule Type Limits Name input -- will not be validated.\n   ** Warning ** ProcessScheduleInput: Schedule:Day:Interval=\"RES INFIL_U 1 BATH EXHAUST SCHEDULE ALLDAY6\", Blank Schedule Type Limits Name input -- will not be validated.\n   ** Warning ** ProcessScheduleInput: Schedule:Day:Interval=\"RES INFIL_U 1 BATH EXHAUST SCHEDULE ALLDAY7\", Blank Schedule Type Limits Name input -- will not be validated.\n   ** Warning ** ProcessScheduleInput: Schedule:Day:Interval=\"RES INFIL_U 1 BATH EXHAUST SCHEDULE ALLDAY8\", Blank Schedule Type Limits Name input -- will not be validated.\n   ** Warning ** ProcessScheduleInput: Schedule:Day:Interval=\"RES INFIL_U 1 BATH EXHAUST SCHEDULE ALLDAY9\", Blank Schedule Type Limits Name input -- will not be validated.\n   ** Warning ** ProcessScheduleInput: Schedule:Day:Interval=\"RES INFIL_U 1 CLOTHES DRYER EXHAUST SCHEDULE ALLDAY1\", Blank Schedule Type Limits Name input -- will not be validated.\n   ** Warning ** ProcessScheduleInput: Schedule:Day:Interval=\"RES INFIL_U 1 CLOTHES DRYER EXHAUST SCHEDULE ALLDAY10\", Blank Schedule Type Limits Name input -- will not be validated.\n   ** Warning ** ProcessScheduleInput: Schedule:Day:Interval=\"RES INFIL_U 1 CLOTHES DRYER EXHAUST SCHEDULE ALLDAY11\", Blank Schedule Type Limits Name input -- will not be validated.\n   ** Warning ** ProcessScheduleInput: Schedule:Day:Interval=\"RES INFIL_U 1 CLOTHES DRYER EXHAUST SCHEDULE ALLDAY12\", Blank Schedule Type Limits Name input -- will not be validated.\n   ** Warning ** ProcessScheduleInput: Schedule:Day:Interval=\"RES INFIL_U 1 CLOTHES DRYER EXHAUST SCHEDULE ALLDAY2\", Blank Schedule Type Limits Name input -- will not be validated.\n   ** Warning ** ProcessScheduleInput: Schedule:Day:Interval=\"RES INFIL_U 1 CLOTHES DRYER EXHAUST SCHEDULE ALLDAY3\", Blank Schedule Type Limits Name input -- will not be validated.\n   ** Warning ** ProcessScheduleInput: Schedule:Day:Interval=\"RES INFIL_U 1 CLOTHES DRYER EXHAUST SCHEDULE ALLDAY4\", Blank Schedule Type Limits Name input -- will not be validated.\n   ** Warning ** ProcessScheduleInput: Schedule:Day:Interval=\"RES INFIL_U 1 CLOTHES DRYER EXHAUST SCHEDULE ALLDAY5\", Blank Schedule Type Limits Name input -- will not be validated.\n   ** Warning ** ProcessScheduleInput: Schedule:Day:Interval=\"RES INFIL_U 1 CLOTHES DRYER EXHAUST SCHEDULE ALLDAY6\", Blank Schedule Type Limits Name input -- will not be validated.\n   ** Warning ** ProcessScheduleInput: Schedule:Day:Interval=\"RES INFIL_U 1 CLOTHES DRYER EXHAUST SCHEDULE ALLDAY7\", Blank Schedule Type Limits Name input -- will not be validated.\n   ** Warning ** ProcessScheduleInput: Schedule:Day:Interval=\"RES INFIL_U 1 CLOTHES DRYER EXHAUST SCHEDULE ALLDAY8\", Blank Schedule Type Limits Name input -- will not be validated.\n   ** Warning ** ProcessScheduleInput: Schedule:Day:Interval=\"RES INFIL_U 1 CLOTHES DRYER EXHAUST SCHEDULE ALLDAY9\", Blank Schedule Type Limits Name input -- will not be validated.\n   ** Warning ** ProcessScheduleInput: Schedule:Day:Interval=\"RES INFIL_U 1 RANGE HOOD SCHEDULE ALLDAY1\", Blank Schedule Type Limits Name input -- will not be validated.\n   ** Warning ** ProcessScheduleInput: Schedule:Day:Interval=\"RES INFIL_U 1 RANGE HOOD SCHEDULE ALLDAY10\", Blank Schedule Type Limits Name input -- will not be validated.\n   ** Warning ** ProcessScheduleInput: Schedule:Day:Interval=\"RES INFIL_U 1 RANGE HOOD SCHEDULE ALLDAY11\", Blank Schedule Type Limits Name input -- will not be validated.\n   ** Warning ** ProcessScheduleInput: Schedule:Day:Interval=\"RES INFIL_U 1 RANGE HOOD SCHEDULE ALLDAY12\", Blank Schedule Type Limits Name input -- will not be validated.\n   ** Warning ** ProcessScheduleInput: Schedule:Day:Interval=\"RES INFIL_U 1 RANGE HOOD SCHEDULE ALLDAY2\", Blank Schedule Type Limits Name input -- will not be validated.\n   ** Warning ** ProcessScheduleInput: Schedule:Day:Interval=\"RES INFIL_U 1 RANGE HOOD SCHEDULE ALLDAY3\", Blank Schedule Type Limits Name input -- will not be validated.\n   ** Warning ** ProcessScheduleInput: Schedule:Day:Interval=\"RES INFIL_U 1 RANGE HOOD SCHEDULE ALLDAY4\", Blank Schedule Type Limits Name input -- will not be validated.\n   ** Warning ** ProcessScheduleInput: Schedule:Day:Interval=\"RES INFIL_U 1 RANGE HOOD SCHEDULE ALLDAY5\", Blank Schedule Type Limits Name input -- will not be validated.\n   ** Warning ** ProcessScheduleInput: Schedule:Day:Interval=\"RES INFIL_U 1 RANGE HOOD SCHEDULE ALLDAY6\", Blank Schedule Type Limits Name input -- will not be validated.\n   ** Warning ** ProcessScheduleInput: Schedule:Day:Interval=\"RES INFIL_U 1 RANGE HOOD SCHEDULE ALLDAY7\", Blank Schedule Type Limits Name input -- will not be validated.\n   ** Warning ** ProcessScheduleInput: Schedule:Day:Interval=\"RES INFIL_U 1 RANGE HOOD SCHEDULE ALLDAY8\", Blank Schedule Type Limits Name input -- will not be validated.\n   ** Warning ** ProcessScheduleInput: Schedule:Day:Interval=\"RES INFIL_U 1 RANGE HOOD SCHEDULE ALLDAY9\", Blank Schedule Type Limits Name input -- will not be validated.\n   ** Warning ** ProcessScheduleInput: Schedule:Day:Interval=\"RES MV_U 1 ENERGY SCHEDULE ALLDAY1\", Blank Schedule Type Limits Name input -- will not be validated.\n   ** Warning ** ProcessScheduleInput: Schedule:Day:Interval=\"RES MV_U 1 ENERGY SCHEDULE ALLDAY10\", Blank Schedule Type Limits Name input -- will not be validated.\n   ** Warning ** ProcessScheduleInput: Schedule:Day:Interval=\"RES MV_U 1 ENERGY SCHEDULE ALLDAY11\", Blank Schedule Type Limits Name input -- will not be validated.\n   ** Warning ** ProcessScheduleInput: Schedule:Day:Interval=\"RES MV_U 1 ENERGY SCHEDULE ALLDAY12\", Blank Schedule Type Limits Name input -- will not be validated.\n   ** Warning ** ProcessScheduleInput: Schedule:Day:Interval=\"RES MV_U 1 ENERGY SCHEDULE ALLDAY2\", Blank Schedule Type Limits Name input -- will not be validated.\n   ** Warning ** ProcessScheduleInput: Schedule:Day:Interval=\"RES MV_U 1 ENERGY SCHEDULE ALLDAY3\", Blank Schedule Type Limits Name input -- will not be validated.\n   ** Warning ** ProcessScheduleInput: Schedule:Day:Interval=\"RES MV_U 1 ENERGY SCHEDULE ALLDAY4\", Blank Schedule Type Limits Name input -- will not be validated.\n   ** Warning ** ProcessScheduleInput: Schedule:Day:Interval=\"RES MV_U 1 ENERGY SCHEDULE ALLDAY5\", Blank Schedule Type Limits Name input -- will not be validated.\n   ** Warning ** ProcessScheduleInput: Schedule:Day:Interval=\"RES MV_U 1 ENERGY SCHEDULE ALLDAY6\", Blank Schedule Type Limits Name input -- will not be validated.\n   ** Warning ** ProcessScheduleInput: Schedule:Day:Interval=\"RES MV_U 1 ENERGY SCHEDULE ALLDAY7\", Blank Schedule Type Limits Name input -- will not be validated.\n   ** Warning ** ProcessScheduleInput: Schedule:Day:Interval=\"RES MV_U 1 ENERGY SCHEDULE ALLDAY8\", Blank Schedule Type Limits Name input -- will not be validated.\n   ** Warning ** ProcessScheduleInput: Schedule:Day:Interval=\"RES MV_U 1 ENERGY SCHEDULE ALLDAY9\", Blank Schedule Type Limits Name input -- will not be validated.\n   ** Warning ** ProcessScheduleInput: Schedule:Day:Interval=\"RES MV_U 1 SCHEDULE ALLDAY1\", Blank Schedule Type Limits Name input -- will not be validated.\n   ** Warning ** ProcessScheduleInput: Schedule:Day:Interval=\"RES MV_U 1 SCHEDULE ALLDAY10\", Blank Schedule Type Limits Name input -- will not be validated.\n   ** Warning ** ProcessScheduleInput: Schedule:Day:Interval=\"RES MV_U 1 SCHEDULE ALLDAY11\", Blank Schedule Type Limits Name input -- will not be validated.\n   ** Warning ** ProcessScheduleInput: Schedule:Day:Interval=\"RES MV_U 1 SCHEDULE ALLDAY12\", Blank Schedule Type Limits Name input -- will not be validated.\n   ** Warning ** ProcessScheduleInput: Schedule:Day:Interval=\"RES MV_U 1 SCHEDULE ALLDAY2\", Blank Schedule Type Limits Name input -- will not be validated.\n   ** Warning ** ProcessScheduleInput: Schedule:Day:Interval=\"RES MV_U 1 SCHEDULE ALLDAY3\", Blank Schedule Type Limits Name input -- will not be validated.\n   ** Warning ** ProcessScheduleInput: Schedule:Day:Interval=\"RES MV_U 1 SCHEDULE ALLDAY4\", Blank Schedule Type Limits Name input -- will not be validated.\n   ** Warning ** ProcessScheduleInput: Schedule:Day:Interval=\"RES MV_U 1 SCHEDULE ALLDAY5\", Blank Schedule Type Limits Name input -- will not be validated.\n   ** Warning ** ProcessScheduleInput: Schedule:Day:Interval=\"RES MV_U 1 SCHEDULE ALLDAY6\", Blank Schedule Type Limits Name input -- will not be validated.\n   ** Warning ** ProcessScheduleInput: Schedule:Day:Interval=\"RES MV_U 1 SCHEDULE ALLDAY7\", Blank Schedule Type Limits Name input -- will not be validated.\n   ** Warning ** ProcessScheduleInput: Schedule:Day:Interval=\"RES MV_U 1 SCHEDULE ALLDAY8\", Blank Schedule Type Limits Name input -- will not be validated.\n   ** Warning ** ProcessScheduleInput: Schedule:Day:Interval=\"RES MV_U 1 SCHEDULE ALLDAY9\", Blank Schedule Type Limits Name input -- will not be validated.\n   ** Warning ** ProcessScheduleInput: Schedule:Day:Interval=\"RES NV_U 1 AVAILABILITY SCHEDULE ALLDAY1 ON\", Blank Schedule Type Limits Name input -- will not be validated.\n   ** Warning ** ProcessScheduleInput: Schedule:Day:Interval=\"RES NV_U 1 AVAILABILITY SCHEDULE ALLDAY1 ON 1\", Blank Schedule Type Limits Name input -- will not be validated.\n   ** Warning ** ProcessScheduleInput: Schedule:Day:Interval=\"RES NV_U 1 AVAILABILITY SCHEDULE ALLDAY1 ON 10\", Blank Schedule Type Limits Name input -- will not be validated.\n   ** Warning ** ProcessScheduleInput: Schedule:Day:Interval=\"RES NV_U 1 AVAILABILITY SCHEDULE ALLDAY1 ON 11\", Blank Schedule Type Limits Name input -- will not be validated.\n   ** Warning ** ProcessScheduleInput: Schedule:Day:Interval=\"RES NV_U 1 AVAILABILITY SCHEDULE ALLDAY1 ON 2\", Blank Schedule Type Limits Name input -- will not be validated.\n   ** Warning ** ProcessScheduleInput: Schedule:Day:Interval=\"RES NV_U 1 AVAILABILITY SCHEDULE ALLDAY1 ON 3\", Blank Schedule Type Limits Name input -- will not be validated.\n   ** Warning ** ProcessScheduleInput: Schedule:Day:Interval=\"RES NV_U 1 AVAILABILITY SCHEDULE ALLDAY1 ON 4\", Blank Schedule Type Limits Name input -- will not be validated.\n   ** Warning ** ProcessScheduleInput: Schedule:Day:Interval=\"RES NV_U 1 AVAILABILITY SCHEDULE ALLDAY1 ON 5\", Blank Schedule Type Limits Name input -- will not be validated.\n   ** Warning ** ProcessScheduleInput: Schedule:Day:Interval=\"RES NV_U 1 AVAILABILITY SCHEDULE ALLDAY1 ON 6\", Blank Schedule Type Limits Name input -- will not be validated.\n   ** Warning ** ProcessScheduleInput: Schedule:Day:Interval=\"RES NV_U 1 AVAILABILITY SCHEDULE ALLDAY1 ON 7\", Blank Schedule Type Limits Name input -- will not be validated.\n   ** Warning ** ProcessScheduleInput: Schedule:Day:Interval=\"RES NV_U 1 AVAILABILITY SCHEDULE ALLDAY1 ON 8\", Blank Schedule Type Limits Name input -- will not be validated.\n   ** Warning ** ProcessScheduleInput: Schedule:Day:Interval=\"RES NV_U 1 AVAILABILITY SCHEDULE ALLDAY1 ON 9\", Blank Schedule Type Limits Name input -- will not be validated.\n   ** Warning ** ProcessScheduleInput: Schedule:Day:Interval=\"RES NV_U 1 TEMP SCHEDULE ALLDAY1\", Blank Schedule Type Limits Name input -- will not be validated.\n   ** Warning ** ProcessScheduleInput: Schedule:Day:Interval=\"RES NV_U 1 TEMP SCHEDULE ALLDAY10\", Blank Schedule Type Limits Name input -- will not be validated.\n   ** Warning ** ProcessScheduleInput: Schedule:Day:Interval=\"RES NV_U 1 TEMP SCHEDULE ALLDAY11\", Blank Schedule Type Limits Name input -- will not be validated.\n   ** Warning ** ProcessScheduleInput: Schedule:Day:Interval=\"RES NV_U 1 TEMP SCHEDULE ALLDAY12\", Blank Schedule Type Limits Name input -- will not be validated.\n   ** Warning ** ProcessScheduleInput: Schedule:Day:Interval=\"RES NV_U 1 TEMP SCHEDULE ALLDAY2\", Blank Schedule Type Limits Name input -- will not be validated.\n   ** Warning ** ProcessScheduleInput: Schedule:Day:Interval=\"RES NV_U 1 TEMP SCHEDULE ALLDAY3\", Blank Schedule Type Limits Name input -- will not be validated.\n   ** Warning ** ProcessScheduleInput: Schedule:Day:Interval=\"RES NV_U 1 TEMP SCHEDULE ALLDAY4\", Blank Schedule Type Limits Name input -- will not be validated.\n   ** Warning ** ProcessScheduleInput: Schedule:Day:Interval=\"RES NV_U 1 TEMP SCHEDULE ALLDAY5\", Blank Schedule Type Limits Name input -- will not be validated.\n   ** Warning ** ProcessScheduleInput: Schedule:Day:Interval=\"RES NV_U 1 TEMP SCHEDULE ALLDAY6\", Blank Schedule Type Limits Name input -- will not be validated.\n   ** Warning ** ProcessScheduleInput: Schedule:Day:Interval=\"RES NV_U 1 TEMP SCHEDULE ALLDAY7\", Blank Schedule Type Limits Name input -- will not be validated.\n   ** Warning ** ProcessScheduleInput: Schedule:Day:Interval=\"RES NV_U 1 TEMP SCHEDULE ALLDAY8\", Blank Schedule Type Limits Name input -- will not be validated.\n   ** Warning ** ProcessScheduleInput: Schedule:Day:Interval=\"RES NV_U 1 TEMP SCHEDULE ALLDAY9\", Blank Schedule Type Limits Name input -- will not be validated.\n   ** Warning ** ProcessScheduleInput: Schedule:Day:Interval=\"RESIDENTIAL CEILING FAN SCHEDULE ALLDAY1\", Blank Schedule Type Limits Name input -- will not be validated.\n   ** Warning ** ProcessScheduleInput: Schedule:Day:Interval=\"RESIDENTIAL CEILING FAN SCHEDULE ALLDAY10\", Blank Schedule Type Limits Name input -- will not be validated.\n   ** Warning ** ProcessScheduleInput: Schedule:Day:Interval=\"RESIDENTIAL CEILING FAN SCHEDULE ALLDAY11\", Blank Schedule Type Limits Name input -- will not be validated.\n   ** Warning ** ProcessScheduleInput: Schedule:Day:Interval=\"RESIDENTIAL CEILING FAN SCHEDULE ALLDAY12\", Blank Schedule Type Limits Name input -- will not be validated.\n   ** Warning ** ProcessScheduleInput: Schedule:Day:Interval=\"RESIDENTIAL CEILING FAN SCHEDULE ALLDAY2\", Blank Schedule Type Limits Name input -- will not be validated.\n   ** Warning ** ProcessScheduleInput: Schedule:Day:Interval=\"RESIDENTIAL CEILING FAN SCHEDULE ALLDAY3\", Blank Schedule Type Limits Name input -- will not be validated.\n   ** Warning ** ProcessScheduleInput: Schedule:Day:Interval=\"RESIDENTIAL CEILING FAN SCHEDULE ALLDAY4\", Blank Schedule Type Limits Name input -- will not be validated.\n   ** Warning ** ProcessScheduleInput: Schedule:Day:Interval=\"RESIDENTIAL CEILING FAN SCHEDULE ALLDAY5\", Blank Schedule Type Limits Name input -- will not be validated.\n   ** Warning ** ProcessScheduleInput: Schedule:Day:Interval=\"RESIDENTIAL CEILING FAN SCHEDULE ALLDAY6\", Blank Schedule Type Limits Name input -- will not be validated.\n   ** Warning ** ProcessScheduleInput: Schedule:Day:Interval=\"RESIDENTIAL CEILING FAN SCHEDULE ALLDAY7\", Blank Schedule Type Limits Name input -- will not be validated.\n   ** Warning ** ProcessScheduleInput: Schedule:Day:Interval=\"RESIDENTIAL CEILING FAN SCHEDULE ALLDAY8\", Blank Schedule Type Limits Name input -- will not be validated.\n   ** Warning ** ProcessScheduleInput: Schedule:Day:Interval=\"RESIDENTIAL CEILING FAN SCHEDULE ALLDAY9\", Blank Schedule Type Limits Name input -- will not be validated.\n   ** Warning ** ProcessScheduleInput: Schedule:Day:Interval=\"RESIDENTIAL HEATING SEASON ALLDAY1\", Blank Schedule Type Limits Name input -- will not be validated.\n   ** Warning ** ProcessScheduleInput: Schedule:Day:Interval=\"RESIDENTIAL HEATING SEASON ALLDAY10\", Blank Schedule Type Limits Name input -- will not be validated.\n   ** Warning ** ProcessScheduleInput: Schedule:Day:Interval=\"RESIDENTIAL HEATING SEASON ALLDAY11\", Blank Schedule Type Limits Name input -- will not be validated.\n   ** Warning ** ProcessScheduleInput: Schedule:Day:Interval=\"RESIDENTIAL HEATING SEASON ALLDAY12\", Blank Schedule Type Limits Name input -- will not be validated.\n   ** Warning ** ProcessScheduleInput: Schedule:Day:Interval=\"RESIDENTIAL HEATING SEASON ALLDAY2\", Blank Schedule Type Limits Name input -- will not be validated.\n   ** Warning ** ProcessScheduleInput: Schedule:Day:Interval=\"RESIDENTIAL HEATING SEASON ALLDAY3\", Blank Schedule Type Limits Name input -- will not be validated.\n   ** Warning ** ProcessScheduleInput: Schedule:Day:Interval=\"RESIDENTIAL HEATING SEASON ALLDAY4\", Blank Schedule Type Limits Name input -- will not be validated.\n   ** Warning ** ProcessScheduleInput: Schedule:Day:Interval=\"RESIDENTIAL HEATING SEASON ALLDAY5\", Blank Schedule Type Limits Name input -- will not be validated.\n   ** Warning ** ProcessScheduleInput: Schedule:Day:Interval=\"RESIDENTIAL HEATING SEASON ALLDAY6\", Blank Schedule Type Limits Name input -- will not be validated.\n   ** Warning ** ProcessScheduleInput: Schedule:Day:Interval=\"RESIDENTIAL HEATING SEASON ALLDAY7\", Blank Schedule Type Limits Name input -- will not be validated.\n   ** Warning ** ProcessScheduleInput: Schedule:Day:Interval=\"RESIDENTIAL HEATING SEASON ALLDAY8\", Blank Schedule Type Limits Name input -- will not be validated.\n   ** Warning ** ProcessScheduleInput: Schedule:Day:Interval=\"RESIDENTIAL HEATING SEASON ALLDAY9\", Blank Schedule Type Limits Name input -- will not be validated.\n   ** Warning ** ProcessScheduleInput: Schedule:Day:Interval=\"RESIDENTIAL WINDOW SHADING SCHEDULE ALLDAY1\", Blank Schedule Type Limits Name input -- will not be validated.\n   ** Warning ** ProcessScheduleInput: Schedule:Day:Interval=\"RESIDENTIAL WINDOW SHADING SCHEDULE ALLDAY10\", Blank Schedule Type Limits Name input -- will not be validated.\n   ** Warning ** ProcessScheduleInput: Schedule:Day:Interval=\"RESIDENTIAL WINDOW SHADING SCHEDULE ALLDAY11\", Blank Schedule Type Limits Name input -- will not be validated.\n   ** Warning ** ProcessScheduleInput: Schedule:Day:Interval=\"RESIDENTIAL WINDOW SHADING SCHEDULE ALLDAY12\", Blank Schedule Type Limits Name input -- will not be validated.\n   ** Warning ** ProcessScheduleInput: Schedule:Day:Interval=\"RESIDENTIAL WINDOW SHADING SCHEDULE ALLDAY2\", Blank Schedule Type Limits Name input -- will not be validated.\n   ** Warning ** ProcessScheduleInput: Schedule:Day:Interval=\"RESIDENTIAL WINDOW SHADING SCHEDULE ALLDAY3\", Blank Schedule Type Limits Name input -- will not be validated.\n   ** Warning ** ProcessScheduleInput: Schedule:Day:Interval=\"RESIDENTIAL WINDOW SHADING SCHEDULE ALLDAY4\", Blank Schedule Type Limits Name input -- will not be validated.\n   ** Warning ** ProcessScheduleInput: Schedule:Day:Interval=\"RESIDENTIAL WINDOW SHADING SCHEDULE ALLDAY5\", Blank Schedule Type Limits Name input -- will not be validated.\n   ** Warning ** ProcessScheduleInput: Schedule:Day:Interval=\"RESIDENTIAL WINDOW SHADING SCHEDULE ALLDAY6\", Blank Schedule Type Limits Name input -- will not be validated.\n   ** Warning ** ProcessScheduleInput: Schedule:Day:Interval=\"RESIDENTIAL WINDOW SHADING SCHEDULE ALLDAY7\", Blank Schedule Type Limits Name input -- will not be validated.\n   ** Warning ** ProcessScheduleInput: Schedule:Day:Interval=\"RESIDENTIAL WINDOW SHADING SCHEDULE ALLDAY8\", Blank Schedule Type Limits Name input -- will not be validated.\n   ** Warning ** ProcessScheduleInput: Schedule:Day:Interval=\"RESIDENTIAL WINDOW SHADING SCHEDULE ALLDAY9\", Blank Schedule Type Limits Name input -- will not be validated.\n   ** Warning ** ProcessScheduleInput: Schedule:Day:Interval=\"SCHEDULE DAY 26\", Blank Schedule Type Limits Name input -- will not be validated.\n   ** Warning ** ProcessScheduleInput: Schedule:Day:Interval=\"SCHEDULE DAY 27\", Blank Schedule Type Limits Name input -- will not be validated.\n   ** Warning ** ProcessScheduleInput: Schedule:Day:Interval=\"SCHEDULE DAY 28\", Blank Schedule Type Limits Name input -- will not be validated.\n   ** Warning ** ProcessScheduleInput: Schedule:Day:Interval=\"SCHEDULE DAY 29\", Blank Schedule Type Limits Name input -- will not be validated.\n   ** Warning ** ProcessScheduleInput: Schedule:Day:Interval=\"SCHEDULE DAY 3\", Blank Schedule Type Limits Name input -- will not be validated.\n   ** Warning ** ProcessScheduleInput: Schedule:Day:Interval=\"SCHEDULE DAY 30\", Blank Schedule Type Limits Name input -- will not be validated.\n   ** Warning ** ProcessScheduleInput: Schedule:Day:Interval=\"SCHEDULE DAY 31\", Blank Schedule Type Limits Name input -- will not be validated.\n   ** Warning ** ProcessScheduleInput: Schedule:Day:Interval=\"SCHEDULE DAY 32\", Blank Schedule Type Limits Name input -- will not be validated.\n   ** Warning ** ProcessScheduleInput: Schedule:Day:Interval=\"SCHEDULE DAY 5\", Blank Schedule Type Limits Name input -- will not be validated.\n   ** Warning ** ProcessScheduleInput: Schedule:Day:Interval=\"SCHEDULE DAY 9\", Blank Schedule Type Limits Name input -- will not be validated.\n   ** Warning ** ProcessScheduleInput: Schedule:Year=\"RES INFIL_U 1 BATH EXHAUST SCHEDULE\", Blank Schedule Type Limits Name input -- will not be validated.\n   ** Warning ** ProcessScheduleInput: Schedule:Year=\"RES INFIL_U 1 CLOTHES DRYER EXHAUST SCHEDULE\", Blank Schedule Type Limits Name input -- will not be validated.\n   ** Warning ** ProcessScheduleInput: Schedule:Year=\"RES INFIL_U 1 RANGE HOOD SCHEDULE\", Blank Schedule Type Limits Name input -- will not be validated.\n   ** Warning ** ProcessScheduleInput: Schedule:Year=\"RES MV_U 1 ENERGY SCHEDULE\", Blank Schedule Type Limits Name input -- will not be validated.\n   ** Warning ** ProcessScheduleInput: Schedule:Year=\"RES MV_U 1 SCHEDULE\", Blank Schedule Type Limits Name input -- will not be validated.\n   ** Warning ** ProcessScheduleInput: Schedule:Year=\"RES NV_U 1 AVAIL SCHEDULE\", Blank Schedule Type Limits Name input -- will not be validated.\n   ** Warning ** ProcessScheduleInput: Schedule:Year=\"RES NV_U 1 TEMP SCHEDULE\", Blank Schedule Type Limits Name input -- will not be validated.\n   ** Warning ** ProcessScheduleInput: Schedule:Year=\"RESIDENTIAL CEILING FAN SCHEDULE\", Blank Schedule Type Limits Name input -- will not be validated.\n   ** Warning ** ProcessScheduleInput: Schedule:Year=\"RESIDENTIAL HEATING SEASON\", Blank Schedule Type Limits Name input -- will not be validated.\n   ** Warning ** ProcessScheduleInput: Schedule:Year=\"RESIDENTIAL WINDOW SHADING SCHEDULE\", Blank Schedule Type Limits Name input -- will not be validated.\n   ** Warning ** ProcessScheduleInput: Schedule:Constant=\"RESIDENTIAL BATH TEMPERATURE SCHEDULE\", Blank Schedule Type Limits Name input -- will not be validated.\n   ** Warning ** ProcessScheduleInput: Schedule:Constant=\"RESIDENTIAL CLOTHES WASHER TEMPERATURE SCHEDULE\", Blank Schedule Type Limits Name input -- will not be validated.\n   ** Warning ** ProcessScheduleInput: Schedule:Constant=\"RESIDENTIAL DISHWASHER TEMPERATURE SCHEDULE\", Blank Schedule Type Limits Name input -- will not be validated.\n   ** Warning ** ProcessScheduleInput: Schedule:Constant=\"RESIDENTIAL SHOWER TEMPERATURE SCHEDULE\", Blank Schedule Type Limits Name input -- will not be validated.\n   ** Warning ** ProcessScheduleInput: Schedule:Constant=\"RESIDENTIAL SINK TEMPERATURE SCHEDULE\", Blank Schedule Type Limits Name input -- will not be validated.\n   ** Warning ** GetSurfaceData: Entered Zone Floor Areas differ from calculated Zone Floor Area(s).\n   **   ~~~   ** ...use Output:Diagnostics,DisplayExtraWarnings; to show more details on individual zones.\n   ************* Note that the following warning(s) may/will occur if you have not enclosed your zone completely.\n   ** Warning ** Entered Zone Volumes differ from calculated zone volume(s).\n   **   ~~~   ** ...use Output:Diagnostics,DisplayExtraWarnings; to show more details on individual zones.\n   ** Warning ** CheckUsedConstructions: There are 1 nominally unused constructions in input.\n   **   ~~~   ** For explicit details on each unused construction, use Output:Diagnostics,DisplayExtraWarnings;\n   ** Warning ** DetermineShadowingCombinations: There are 3 surfaces which are receiving surfaces and are non-convex.\n   **   ~~~   ** ...Shadowing values may be inaccurate. Check .shd report file for more surface shading details\n   **   ~~~   ** ...Add Output:Diagnostics,DisplayExtraWarnings; to see individual warnings for each surface.\n   ** Severe  ** DetermineShadowingCombinations: There are 3 surfaces which are casting surfaces and are non-convex.\n   **   ~~~   ** ...Shadowing values may be inaccurate. Check .shd report file for more surface shading details\n   **   ~~~   ** ...Add Output:Diagnostics,DisplayExtraWarnings; to see individual severes for each surface.\n   ** Warning ** DeterminePolygonOverlap: Too many figures [>200]  detected in an overlap calculation. Use Output:Diagnostics,DisplayExtraWarnings; for more details.\n   ** Warning ** The Standard Ratings is calculated for Coil:Cooling:DX:SingleSpeed = RESIDENTIAL CENTRAL AC COOLING COIL but not at the AHRI test condition due to curve out of bound.\n   **   ~~~   **  Review the Standard Ratings calculations in the Engineering Reference for this coil type. Also, use Output:Diagnostics, DisplayExtraWarnings for further guidance.\n   ** Warning ** Check input. Pump nominal power or motor efficiency is set to 0, for pump=PUMP VARIABLE SPEED 1\n   ** Warning ** Output:Meter: invalid Name=\"HEATING:ELECTRICITY\" - not found.\n   ** Warning ** Output:Meter: invalid Name=\"HEATING:GAS\" - not found.\n   ** Warning ** Output:Meter: invalid Name=\"HEATING:DISTRICTCOOLING\" - not found.\n   ** Warning ** Output:Meter: invalid Name=\"HEATING:DISTRICTHEATING\" - not found.\n   ** Warning ** Output:Meter: invalid Name=\"HEATING:WATER\" - not found.\n   ** Warning ** Output:Meter: invalid Name=\"HEATING:FUELOIL#1\" - not found.\n   ** Warning ** Output:Meter: invalid Name=\"HEATING:PROPANE\" - not found.\n   ** Warning ** Output:Meter: invalid Name=\"COOLING:GAS\" - not found.\n   ** Warning ** Output:Meter: invalid Name=\"COOLING:DISTRICTCOOLING\" - not found.\n   ** Warning ** Output:Meter: invalid Name=\"COOLING:DISTRICTHEATING\" - not found.\n   ** Warning ** Output:Meter: invalid Name=\"COOLING:WATER\" - not found.\n   ** Warning ** Output:Meter: invalid Name=\"COOLING:FUELOIL#1\" - not found.\n   ** Warning ** Output:Meter: invalid Name=\"COOLING:PROPANE\" - not found.\n   ** Warning ** Output:Meter: invalid Name=\"INTERIORLIGHTS:GAS\" - not found.\n   ** Warning ** Output:Meter: invalid Name=\"INTERIORLIGHTS:DISTRICTCOOLING\" - not found.\n   ** Warning ** Output:Meter: invalid Name=\"INTERIORLIGHTS:DISTRICTHEATING\" - not found.\n   ** Warning ** Output:Meter: invalid Name=\"INTERIORLIGHTS:WATER\" - not found.\n   ** Warning ** Output:Meter: invalid Name=\"INTERIORLIGHTS:FUELOIL#1\" - not found.\n   ** Warning ** Output:Meter: invalid Name=\"INTERIORLIGHTS:PROPANE\" - not found.\n   ** Warning ** Output:Meter: invalid Name=\"EXTERIORLIGHTS:GAS\" - not found.\n   ** Warning ** Output:Meter: invalid Name=\"EXTERIORLIGHTS:DISTRICTCOOLING\" - not found.\n   ** Warning ** Output:Meter: invalid Name=\"EXTERIORLIGHTS:DISTRICTHEATING\" - not found.\n   ** Warning ** Output:Meter: invalid Name=\"EXTERIORLIGHTS:WATER\" - not found.\n   ** Warning ** Output:Meter: invalid Name=\"EXTERIORLIGHTS:FUELOIL#1\" - not found.\n   ** Warning ** Output:Meter: invalid Name=\"EXTERIORLIGHTS:PROPANE\" - not found.\n   ** Warning ** Output:Meter: invalid Name=\"INTERIOREQUIPMENT:DISTRICTCOOLING\" - not found.\n   ** Warning ** Output:Meter: invalid Name=\"INTERIOREQUIPMENT:DISTRICTHEATING\" - not found.\n   ** Warning ** Output:Meter: invalid Name=\"INTERIOREQUIPMENT:WATER\" - not found.\n   ** Warning ** Output:Meter: invalid Name=\"INTERIOREQUIPMENT:FUELOIL#1\" - not found.\n   ** Warning ** Output:Meter: invalid Name=\"INTERIOREQUIPMENT:PROPANE\" - not found.\n   ** Warning ** Output:Meter: invalid Name=\"EXTERIOREQUIPMENT:ELECTRICITY\" - not found.\n   ** Warning ** Output:Meter: invalid Name=\"EXTERIOREQUIPMENT:GAS\" - not found.\n   ** Warning ** Output:Meter: invalid Name=\"EXTERIOREQUIPMENT:DISTRICTCOOLING\" - not found.\n   ** Warning ** Output:Meter: invalid Name=\"EXTERIOREQUIPMENT:DISTRICTHEATING\" - not found.\n   ** Warning ** Output:Meter: invalid Name=\"EXTERIOREQUIPMENT:WATER\" - not found.\n   ** Warning ** Output:Meter: invalid Name=\"EXTERIOREQUIPMENT:FUELOIL#1\" - not found.\n   ** Warning ** Output:Meter: invalid Name=\"EXTERIOREQUIPMENT:PROPANE\" - not found.\n   ** Warning ** Output:Meter: invalid Name=\"FANS:GAS\" - not found.\n   ** Warning ** Output:Meter: invalid Name=\"FANS:DISTRICTCOOLING\" - not found.\n   ** Warning ** Output:Meter: invalid Name=\"FANS:DISTRICTHEATING\" - not found.\n   ** Warning ** Output:Meter: invalid Name=\"FANS:WATER\" - not found.\n   ** Warning ** Output:Meter: invalid Name=\"FANS:FUELOIL#1\" - not found.\n   ** Warning ** Output:Meter: invalid Name=\"FANS:PROPANE\" - not found.\n   ** Warning ** Output:Meter: invalid Name=\"PUMPS:GAS\" - not found.\n   ** Warning ** Output:Meter: invalid Name=\"PUMPS:DISTRICTCOOLING\" - not found.\n   ** Warning ** Output:Meter: invalid Name=\"PUMPS:DISTRICTHEATING\" - not found.\n   ** Warning ** Output:Meter: invalid Name=\"PUMPS:WATER\" - not found.\n   ** Warning ** Output:Meter: invalid Name=\"PUMPS:FUELOIL#1\" - not found.\n   ** Warning ** Output:Meter: invalid Name=\"PUMPS:PROPANE\" - not found.\n   ** Warning ** Output:Meter: invalid Name=\"HEATREJECTION:ELECTRICITY\" - not found.\n   ** Warning ** Output:Meter: invalid Name=\"HEATREJECTION:GAS\" - not found.\n   ** Warning ** Output:Meter: invalid Name=\"HEATREJECTION:DISTRICTCOOLING\" - not found.\n   ** Warning ** Output:Meter: invalid Name=\"HEATREJECTION:DISTRICTHEATING\" - not found.\n   ** Warning ** Output:Meter: invalid Name=\"HEATREJECTION:WATER\" - not found.\n   ** Warning ** Output:Meter: invalid Name=\"HEATREJECTION:FUELOIL#1\" - not found.\n   ** Warning ** Output:Meter: invalid Name=\"HEATREJECTION:PROPANE\" - not found.\n   ** Warning ** Output:Meter: invalid Name=\"HUMIDIFIER:ELECTRICITY\" - not found.\n   ** Warning ** Output:Meter: invalid Name=\"HUMIDIFIER:GAS\" - not found.\n   ** Warning ** Output:Meter: invalid Name=\"HUMIDIFIER:DISTRICTCOOLING\" - not found.\n   ** Warning ** Output:Meter: invalid Name=\"HUMIDIFIER:DISTRICTHEATING\" - not found.\n   ** Warning ** Output:Meter: invalid Name=\"HUMIDIFIER:WATER\" - not found.\n   ** Warning ** Output:Meter: invalid Name=\"HUMIDIFIER:FUELOIL#1\" - not found.\n   ** Warning ** Output:Meter: invalid Name=\"HUMIDIFIER:PROPANE\" - not found.\n   ** Warning ** Output:Meter: invalid Name=\"HEATRECOVERY:ELECTRICITY\" - not found.\n   ** Warning ** Output:Meter: invalid Name=\"HEATRECOVERY:GAS\" - not found.\n   ** Warning ** Output:Meter: invalid Name=\"HEATRECOVERY:DISTRICTCOOLING\" - not found.\n   ** Warning ** Output:Meter: invalid Name=\"HEATRECOVERY:DISTRICTHEATING\" - not found.\n   ** Warning ** Output:Meter: invalid Name=\"HEATRECOVERY:WATER\" - not found.\n   ** Warning ** Output:Meter: invalid Name=\"HEATRECOVERY:FUELOIL#1\" - not found.\n   ** Warning ** Output:Meter: invalid Name=\"HEATRECOVERY:PROPANE\" - not found.\n   ** Warning ** Output:Meter: invalid Name=\"WATERSYSTEMS:GAS\" - not found.\n   ** Warning ** Output:Meter: invalid Name=\"WATERSYSTEMS:DISTRICTCOOLING\" - not found.\n   ** Warning ** Output:Meter: invalid Name=\"WATERSYSTEMS:DISTRICTHEATING\" - not found.\n   ** Warning ** Output:Meter: invalid Name=\"WATERSYSTEMS:FUELOIL#1\" - not found.\n   ** Warning ** Output:Meter: invalid Name=\"WATERSYSTEMS:PROPANE\" - not found.\n   ** Warning ** Output:Meter: invalid Name=\"REFRIGERATION:ELECTRICITY\" - not found.\n   ** Warning ** Output:Meter: invalid Name=\"REFRIGERATION:GAS\" - not found.\n   ** Warning ** Output:Meter: invalid Name=\"REFRIGERATION:DISTRICTCOOLING\" - not found.\n   ** Warning ** Output:Meter: invalid Name=\"REFRIGERATION:DISTRICTHEATING\" - not found.\n   ** Warning ** Output:Meter: invalid Name=\"REFRIGERATION:WATER\" - not found.\n   ** Warning ** Output:Meter: invalid Name=\"REFRIGERATION:FUELOIL#1\" - not found.\n   ** Warning ** Output:Meter: invalid Name=\"REFRIGERATION:PROPANE\" - not found.\n   ** Warning ** Output:Meter: invalid Name=\"GENERATORS:ELECTRICITY\" - not found.\n   ** Warning ** Output:Meter: invalid Name=\"GENERATORS:GAS\" - not found.\n   ** Warning ** Output:Meter: invalid Name=\"GENERATORS:DISTRICTCOOLING\" - not found.\n   ** Warning ** Output:Meter: invalid Name=\"GENERATORS:DISTRICTHEATING\" - not found.\n   ** Warning ** Output:Meter: invalid Name=\"GENERATORS:WATER\" - not found.\n   ** Warning ** Output:Meter: invalid Name=\"GENERATORS:FUELOIL#1\" - not found.\n   ** Warning ** Output:Meter: invalid Name=\"GENERATORS:PROPANE\" - not found.\n   ** Warning ** Output:Meter: invalid Name=\"DISTRICTCOOLING:FACILITY\" - not found.\n   ** Warning ** Output:Meter: invalid Name=\"DISTRICTHEATING:FACILITY\" - not found.\n   ** Warning ** Output:Meter: invalid Name=\"FUELOIL#1:FACILITY\" - not found.\n   ** Warning ** Output:Meter: invalid Name=\"PROPANE:FACILITY\" - not found.\n   ** Warning ** Output:Meter: invalid Name=\"DISTRICTCOOLING:FACILITY\" - not found.\n   ** Warning ** Output:Meter: invalid Name=\"DISTRICTHEATING:FACILITY\" - not found.\n   ** Warning ** Output:Meter:MeterFileOnly requested for \"Electricity:Facility\" (TimeStep), already on \"Output:Meter\". Will report to both eplusout.eso and eplusout.mtr\n   ************* Testing Individual Branch Integrity\n   ************* All Branches passed integrity testing\n   ************* Testing Individual Supply Air Path Integrity\n   ************* All Supply Air Paths passed integrity testing\n   ************* Testing Individual Return Air Path Integrity\n   ************* All Return Air Paths passed integrity testing\n   ************* No node connection errors were found.\n   ************* Beginning Simulation\n   ** Warning ** CalcDoe2DXCoil: Coil:Cooling:DX:SingleSpeed=\"RESIDENTIAL CENTRAL AC COOLING COIL\" - Air volume flow rate per watt of rated total cooling capacity is out of range at 6.885E-005 m3/s/W.\n   **   ~~~   **  Environment=RUN PERIOD, at Simulation time=03/31 00:00 - 00:10\n   **   ~~~   ** Expected range for VolumeFlowPerRatedTotalCapacity=[2.684E-005--6.713E-005]\n   **   ~~~   ** Possible causes include inconsistent air flow rates in system components,\n   **   ~~~   ** or variable air volume [VAV] system using incorrect coil type.\n   ************* Simulation Error Summary *************\n   ************* There are 3 unused schedules in input.\n   ************* There are 63 unused week schedules in input.\n   ************* There are 39 unused day schedules in input.\n   ************* Use Output:Diagnostics,DisplayUnusedSchedules; to see them.\n   *************\n   ************* ===== Recurring Surface Error Summary =====\n   ************* The following surface error messages occurred.\n   *************\n   ************* Base Surface does not surround subsurface errors occuring...\n   ************* Check that the GlobalGeometryRules object is expressing the proper starting corner and direction [CounterClockwise/Clockwise]\n   *************\n   ** Warning ** Base surface does not surround subsurface (CHKSBS), Overlap Status=No-Overlap\n   **   ~~~   **   The base surround errors occurred 1 times.\n   **   ~~~   ** Surface \"SURFACE 44\" misses SubSurface \"UNIT 1 - SURFACE 13 - DOOR\"\n   *************\n   **   ~~~   **   The base surround errors occurred 1 times (total).\n   *************\n   *************\n   ************* ===== Recurring Error Summary =====\n   ************* The following recurring error messages occurred.\n   *************\n   *************  ** Warning ** CalcDoe2DXCoil: Coil:Cooling:DX:SingleSpeed=\"RESIDENTIAL CENTRAL AC COOLING COIL\" - Air volume flow rate per watt of rated total cooling capacity is out of range error continues...\n   *************  **   ~~~   **   This error occurred 425622 total times;\n   *************  **   ~~~   **   during Warmup 0 times;\n   *************  **   ~~~   **   during Sizing 0 times.\n   *************  **   ~~~   **   Max=7.065776E-005  Min=6.870468E-005\n   *************\n   *************\n   ************* ===== Final Error Summary =====\n   ************* The following error categories occurred.  Consider correcting or noting.\n   ************* Nominally Unused Constructions\n   ************* ..The nominally unused constructions warning is provided to alert you to potential conditions that can cause\n   ************* ..extra time during simulation. Each construction is calculated by the algorithm indicated in the HeatBalanceAlgorithm\n   ************* ..object. You may remove the constructions indicated (when you use the DisplayExtraWarnings option).\n   *************\n   ************* EnergyPlus Warmup Error Summary. During Warmup: 0 Warning; 0 Severe Errors.\n   ************* EnergyPlus Sizing Error Summary. During Sizing: 0 Warning; 0 Severe Errors.\n   ************* EnergyPlus Completed Successfully-- 425874 Warning; 3 Severe Errors; Elapsed Time=00hr 00min 46.61sec\n",
  "file_format_version": "0.0.1",
  "file_paths": [
    "../weather",
    "../seeds",
    "../seed"
  ],
  "hash": "5AB259DA",
  "measure_paths": [
    "../measures"
  ],
  "name": "diag Autogenerated 480",
  "osa_id": "fe821d2c-df1e-4105-9ee6-6c7fef1463ae",
  "osd_id": "e6e545b3-faec-46bc-bf58-434a79794388",
  "run_directory": "./run",
  "seed_file": "EmptySeedModel.osm",
  "started_at": "20170925T163754Z",
  "steps": [
    {
      "arguments": {
        "building_id": 480,
        "number_of_buildings_represented": 16000000,
        "workflow_json": "measure-info.json"
      },
      "description": "Builds the OpenStudio Model for an existing building.",
      "measure_dir_name": "BuildExistingModel",
      "name": "build_existing_model",
      "result": {
        "completed_at": "20170925T163819Z",
        "measure_class_name": "BuildExistingModel",
        "measure_display_name": "Build Existing Model",
        "measure_name": "build_existing_model",
        "measure_taxonomy": "Whole Building.Space Types",
        "measure_type": "ModelMeasure",
        "measure_uid": "943cde68-f4bf-4e2e-a984-ab70cba2669c",
        "measure_version_id": "bab227f8-ebda-4efe-bde0-abbc0196dbc9",
        "measure_version_modified": "20170819T141850Z",
        "measure_xml_checksum": "9339BE01",
        "started_at": "20170925T163757Z",
        "stderr": "",
        "stdout": "[OpenStudio.Measure] <0> OSArgumentVector is deprecated, use OpenStudio::Measure::OSArgumentVector instead.\n[openstudio.measure.OSRunner] <1> Cannot find current Workflow Step\n[openstudio.WorkflowStepResult] <0> WorkflowStepResult value called with undefined stepResult, returning 'Success'\n[openstudio.measure.OSRunner] <1> Cannot find current Workflow Step\n[openstudio.WorkflowStepResult] <0> WorkflowStepResult value called with undefined stepResult, returning 'Success'\n[openstudio.measure.OSRunner] <1> Cannot find current Workflow Step\n[openstudio.WorkflowStepResult] <0> WorkflowStepResult value called with undefined stepResult, returning 'Success'\n[openstudio.measure.OSRunner] <1> Cannot find current Workflow Step\n[openstudio.WorkflowStepResult] <0> WorkflowStepResult value called with undefined stepResult, returning 'Success'\n[openstudio.measure.OSRunner] <1> Cannot find current Workflow Step\n[openstudio.WorkflowStepResult] <0> WorkflowStepResult value called with undefined stepResult, returning 'Success'\n[openstudio.measure.OSRunner] <1> Cannot find current Workflow Step\n[openstudio.WorkflowStepResult] <0> WorkflowStepResult value called with undefined stepResult, returning 'Success'\n[openstudio.measure.OSRunner] <1> Cannot find current Workflow Step\n[openstudio.WorkflowStepResult] <0> WorkflowStepResult value called with undefined stepResult, returning 'Success'\n[openstudio.measure.OSRunner] <1> Cannot find current Workflow Step\n[openstudio.WorkflowStepResult] <0> WorkflowStepResult value called with undefined stepResult, returning 'Success'\n[openstudio.measure.OSRunner] <1> Cannot find current Workflow Step\n[openstudio.measure.OSRunner] <1> Cannot find current Workflow Step\n[openstudio.WorkflowStepResult] <0> WorkflowStepResult value called with undefined stepResult, returning 'Success'\n[openstudio.measure.OSRunner] <1> Cannot find current Workflow Step\n[openstudio.WorkflowStepResult] <0> WorkflowStepResult value called with undefined stepResult, returning 'Success'\n[openstudio.measure.OSRunner] <1> Cannot find current Workflow Step\n[openstudio.WorkflowStepResult] <0> WorkflowStepResult value called with undefined stepResult, returning 'Success'\n[openstudio.measure.OSRunner] <1> Cannot find current Workflow Step\n[openstudio.WorkflowStepResult] <0> WorkflowStepResult value called with undefined stepResult, returning 'Success'\n[openstudio.measure.OSRunner] <1> Cannot find current Workflow Step\n[openstudio.WorkflowStepResult] <0> WorkflowStepResult value called with undefined stepResult, returning 'Success'\n[openstudio.measure.OSRunner] <1> Cannot find current Workflow Step\n[openstudio.WorkflowStepResult] <0> WorkflowStepResult value called with undefined stepResult, returning 'Success'\n[openstudio.measure.OSRunner] <1> Cannot find current Workflow Step\n[openstudio.WorkflowStepResult] <0> WorkflowStepResult value called with undefined stepResult, returning 'Success'\n[openstudio.measure.OSRunner] <1> Cannot find current Workflow Step\n[openstudio.WorkflowStepResult] <0> WorkflowStepResult value called with undefined stepResult, returning 'Success'\n[openstudio.measure.OSRunner] <1> Cannot find current Workflow Step\n[openstudio.WorkflowStepResult] <0> WorkflowStepResult value called with undefined stepResult, returning 'Success'\n[openstudio.measure.OSRunner] <1> Cannot find current Workflow Step\n[openstudio.WorkflowStepResult] <0> WorkflowStepResult value called with undefined stepResult, returning 'Success'\n[openstudio.measure.OSRunner] <1> Cannot find current Workflow Step\n[openstudio.WorkflowStepResult] <0> WorkflowStepResult value called with undefined stepResult, returning 'Success'\n[openstudio.measure.OSRunner] <1> Cannot find current Workflow Step\n[openstudio.WorkflowStepResult] <0> WorkflowStepResult value called with undefined stepResult, returning 'Success'\n[openstudio.measure.OSRunner] <1> Cannot find current Workflow Step\n[openstudio.WorkflowStepResult] <0> WorkflowStepResult value called with undefined stepResult, returning 'Success'\n[openstudio.measure.OSRunner] <1> Cannot find current Workflow Step\n[openstudio.WorkflowStepResult] <0> WorkflowStepResult value called with undefined stepResult, returning 'Success'\n[openstudio.measure.OSRunner] <1> Cannot find current Workflow Step\n[openstudio.WorkflowStepResult] <0> WorkflowStepResult value called with undefined stepResult, returning 'Success'\n[openstudio.measure.OSRunner] <1> Cannot find current Workflow Step\n[openstudio.WorkflowStepResult] <0> WorkflowStepResult value called with undefined stepResult, returning 'Success'\n[openstudio.measure.OSRunner] <1> Cannot find current Workflow Step\n[openstudio.WorkflowStepResult] <0> WorkflowStepResult value called with undefined stepResult, returning 'Success'\n[openstudio.measure.OSRunner] <1> Cannot find current Workflow Step\n[openstudio.WorkflowStepResult] <0> WorkflowStepResult value called with undefined stepResult, returning 'Success'\n[openstudio.measure.OSRunner] <1> Cannot find current Workflow Step\n[openstudio.WorkflowStepResult] <0> WorkflowStepResult value called with undefined stepResult, returning 'Success'\n[openstudio.measure.OSRunner] <1> Cannot find current Workflow Step\n[openstudio.WorkflowStepResult] <0> WorkflowStepResult value called with undefined stepResult, returning 'Success'\n[openstudio.measure.OSRunner] <1> Cannot find current Workflow Step\n[openstudio.WorkflowStepResult] <0> WorkflowStepResult value called with undefined stepResult, returning 'Success'\n[openstudio.measure.OSRunner] <1> Cannot find current Workflow Step\n[openstudio.WorkflowStepResult] <0> WorkflowStepResult value called with undefined stepResult, returning 'Success'\n[openstudio.measure.OSRunner] <1> Cannot find current Workflow Step\n[openstudio.WorkflowStepResult] <0> WorkflowStepResult value called with undefined stepResult, returning 'Success'\n[openstudio.measure.OSRunner] <1> Cannot find current Workflow Step\n[openstudio.WorkflowStepResult] <0> WorkflowStepResult value called with undefined stepResult, returning 'Success'\n[openstudio.measure.OSRunner] <1> Cannot find current Workflow Step\n[openstudio.WorkflowStepResult] <0> WorkflowStepResult value called with undefined stepResult, returning 'Success'\n[openstudio.measure.OSRunner] <1> Cannot find current Workflow Step\n[openstudio.WorkflowStepResult] <0> WorkflowStepResult value called with undefined stepResult, returning 'Success'\n[openstudio.measure.OSRunner] <1> Cannot find current Workflow Step\n[openstudio.WorkflowStepResult] <0> WorkflowStepResult value called with undefined stepResult, returning 'Success'\n[openstudio.measure.OSRunner] <1> Cannot find current Workflow Step\n[openstudio.WorkflowStepResult] <0> WorkflowStepResult value called with undefined stepResult, returning 'Success'\n[openstudio.measure.OSRunner] <1> Cannot find current Workflow Step\n[openstudio.WorkflowStepResult] <0> WorkflowStepResult value called with undefined stepResult, returning 'Success'\n[openstudio.measure.OSRunner] <1> Cannot find current Workflow Step\n[openstudio.WorkflowStepResult] <0> WorkflowStepResult value called with undefined stepResult, returning 'Success'\n[openstudio.measure.OSRunner] <1> Cannot find current Workflow Step\n[openstudio.WorkflowStepResult] <0> WorkflowStepResult value called with undefined stepResult, returning 'Success'\n[openstudio.measure.OSRunner] <1> Cannot find current Workflow Step\n[openstudio.WorkflowStepResult] <0> WorkflowStepResult value called with undefined stepResult, returning 'Success'\n[openstudio.measure.OSRunner] <1> Cannot find current Workflow Step\n[openstudio.WorkflowStepResult] <0> WorkflowStepResult value called with undefined stepResult, returning 'Success'\n[openstudio.measure.OSRunner] <1> Cannot find current Workflow Step\n[openstudio.WorkflowStepResult] <0> WorkflowStepResult value called with undefined stepResult, returning 'Success'\n[openstudio.measure.OSRunner] <1> Cannot find current Workflow Step\n[openstudio.WorkflowStepResult] <0> WorkflowStepResult value called with undefined stepResult, returning 'Success'\n[openstudio.measure.OSRunner] <1> Cannot find current Workflow Step\n[openstudio.WorkflowStepResult] <0> WorkflowStepResult value called with undefined stepResult, returning 'Success'\n[openstudio.measure.OSRunner] <1> Cannot find current Workflow Step\n[openstudio.WorkflowStepResult] <0> WorkflowStepResult value called with undefined stepResult, returning 'Success'\n[openstudio.measure.OSRunner] <1> Cannot find current Workflow Step\n[openstudio.WorkflowStepResult] <0> WorkflowStepResult value called with undefined stepResult, returning 'Success'\n[openstudio.measure.OSRunner] <1> Cannot find current Workflow Step\n[openstudio.WorkflowStepResult] <0> WorkflowStepResult value called with undefined stepResult, returning 'Success'\n[openstudio.measure.OSRunner] <1> Cannot find current Workflow Step\n[openstudio.WorkflowStepResult] <0> WorkflowStepResult value called with undefined stepResult, returning 'Success'\n[openstudio.measure.OSRunner] <1> Cannot find current Workflow Step\n[openstudio.WorkflowStepResult] <0> WorkflowStepResult value called with undefined stepResult, returning 'Success'\n[openstudio.measure.OSRunner] <1> Cannot find current Workflow Step\n[openstudio.WorkflowStepResult] <0> WorkflowStepResult value called with undefined stepResult, returning 'Success'\n[openstudio.measure.OSRunner] <1> Cannot find current Workflow Step\n[openstudio.WorkflowStepResult] <0> WorkflowStepResult value called with undefined stepResult, returning 'Success'\n[openstudio.measure.OSRunner] <1> Cannot find current Workflow Step\n[openstudio.WorkflowStepResult] <0> WorkflowStepResult value called with undefined stepResult, returning 'Success'\n[openstudio.measure.OSRunner] <1> Cannot find current Workflow Step\n[openstudio.WorkflowStepResult] <0> WorkflowStepResult value called with undefined stepResult, returning 'Success'\n[openstudio.measure.OSRunner] <1> Cannot find current Workflow Step\n[openstudio.WorkflowStepResult] <0> WorkflowStepResult value called with undefined stepResult, returning 'Success'\n[openstudio.measure.OSRunner] <1> Cannot find current Workflow Step\n[openstudio.WorkflowStepResult] <0> WorkflowStepResult value called with undefined stepResult, returning 'Success'\n[openstudio.measure.OSRunner] <1> Cannot find current Workflow Step\n[openstudio.model.YearDescription] <1> 'UseWeatherFile' is not yet a supported option for YearDescription\n[openstudio.WorkflowStepResult] <0> WorkflowStepResult value called with undefined stepResult, returning 'Success'\n",
        "step_errors": [],
        "step_files": [],
        "step_final_condition": "Gas lighting with 0 therms annual energy consumption has been assigned to outside.",
        "step_info": [
          "Assigning option 'CR08' for parameter 'Location Region'.",
          "Assigning option '0909238_United_States_TN_Davidson_47037_723270_36.13_-86.7_NSRDB_2.0.1_2012_AMY.epw' for parameter 'Location EPW'.",
          "Assigning option 'South Atlantic - East South Central' for parameter 'Location Census Division'.",
          "Assigning option '1990s' for parameter 'Vintage'.",
          "Assigning option 'Other Fuel' for parameter 'Heating Fuel'.",
          "Assigning option 'Medium' for parameter 'Usage Level'.",
          "Assigning option 'Unheated Basement' for parameter 'Geometry Foundation Type'.",
          "Assigning option '2+' for parameter 'Geometry Stories'.",
          "Assigning option '2 Car' for parameter 'Geometry Garage'.",
          "Assigning option '1500-2499' for parameter 'Geometry House Size'.",
          "Assigning option 'Auto' for parameter 'Occupants'.",
          "Assigning option 'North' for parameter 'Orientation'.",
          "Assigning option '2 ft' for parameter 'Eaves'.",
          "Assigning option '20 ft^2' for parameter 'Door Area'.",
          "Assigning option 'F15 B15 L15 R15' for parameter 'Window Areas'.",
          "Assigning option 'None' for parameter 'Overhangs'.",
          "Assigning option 'Left/Right at 15ft' for parameter 'Neighbors'.",
          "Assigning option 'Ceiling R-19, Vented' for parameter 'Insulation Unfinished Attic'.",
          "Assigning option '3/4 in. OSB' for parameter 'Roof Sheathing'.",
          "Assigning option 'Asphalt Shingles, Medium' for parameter 'Roof Material'.",
          "Assigning option '1/2 in. Drywall' for parameter 'Thermal Mass Ceiling'.",
          "Assigning option 'None' for parameter 'Insulation Slab'.",
          "Assigning option 'None' for parameter 'Insulation Crawlspace'.",
          "Assigning option 'Ceiling R-19' for parameter 'Insulation Unfinished Basement'.",
          "Assigning option 'None' for parameter 'Insulation Finished Basement'.",
          "Assigning option 'None' for parameter 'Insulation Pier Beam'.",
          "Assigning option 'R-13' for parameter 'Insulation Interzonal Floor'.",
          "Assigning option '3/4 in. OSB' for parameter 'Floor Sheathing'.",
          "Assigning option '80% Carpet' for parameter 'Floor Covering'.",
          "Assigning option 'Wood Surface' for parameter 'Thermal Mass Floor'.",
          "Assigning option 'Wood Stud, R-11' for parameter 'Insulation Wall'.",
          "Assigning option '1/2 in. OSB' for parameter 'Wall Sheathing'.",
          "Assigning option 'Vinyl, Light' for parameter 'Exterior Finish'.",
          "Assigning option '1/2 in. Drywall' for parameter 'Thermal Mass Exterior Wall'.",
          "Assigning option '1/2 in. Drywall' for parameter 'Thermal Mass Partition Wall'.",
          "Assigning option 'Uninsulated' for parameter 'Uninsulated Surfaces'.",
          "Assigning option 'Clear, Double, Non-metal, Air' for parameter 'Windows'.",
          "Assigning option 'Fiberglass' for parameter 'Doors'.",
          "Assigning option 'Standard' for parameter 'Thermal Mass Furniture'.",
          "Assigning option 'Electric Standard' for parameter 'Water Heater'.",
          "Assigning option '100%' for parameter 'Hot Water Fixtures'.",
          "Assigning option 'Uninsulated, TrunkBranch, Copper' for parameter 'Hot Water Distribution'.",
          "Assigning option 'None' for parameter 'Solar Hot Water'.",
          "Assigning option 'No' for parameter 'HVAC System Is Combined'.",
          "Assigning option 'None' for parameter 'HVAC System Combined'.",
          "Assigning option 'None' for parameter 'HVAC System Heating Electricity'.",
          "Assigning option 'None' for parameter 'HVAC System Heating Natural Gas'.",
          "Assigning option 'None' for parameter 'HVAC System Heating Propane'.",
          "Assigning option 'None' for parameter 'HVAC System Heating Fuel Oil'.",
          "Assigning option 'None' for parameter 'HVAC System Heating Other Fuel'.",
          "Assigning option 'None' for parameter 'HVAC System Heating None'.",
          "Assigning option 'AC, SEER 13' for parameter 'HVAC System Cooling'.",
          "Assigning option 'Central' for parameter 'HVAC System Cooling Type'.",
          "Assigning option 'FIXME Location Average' for parameter 'Heating Setpoint'.",
          "Assigning option 'FIXME Location Average' for parameter 'Cooling Setpoint'.",
          "Assigning option 'National Average' for parameter 'Ceiling Fan'.",
          "Assigning option 'None' for parameter 'Dehumidifier'.",
          "Assigning option 'EF 15.9' for parameter 'Refrigerator'.",
          "Assigning option 'Electric, 100% Usage' for parameter 'Cooking Range'.",
          "Assigning option '318 Rated kWh, 100% Usage' for parameter 'Dishwasher'.",
          "Assigning option 'Standard, 100% Usage' for parameter 'Clothes Washer'.",
          "Assigning option 'Electric, 100% Usage' for parameter 'Clothes Dryer'.",
          "Assigning option '100% Incandescent' for parameter 'Lighting'.",
          "Assigning option '100%' for parameter 'Plug Loads'.",
          "Assigning option 'EF 6.9, National Average' for parameter 'Misc Extra Refrigerator'.",
          "Assigning option 'EF 12, National Average' for parameter 'Misc Freezer'.",
          "Assigning option 'National Average' for parameter 'Misc Gas Fireplace'.",
          "Assigning option 'National Average' for parameter 'Misc Gas Grill'.",
          "Assigning option 'National Average' for parameter 'Misc Gas Lighting'.",
          "Assigning option 'National Average' for parameter 'Misc Hot Tub Spa'.",
          "Assigning option 'National Average' for parameter 'Misc Pool'.",
          "Assigning option 'National Average' for parameter 'Misc Well Pump'.",
          "Assigning option '10% Leakage, Uninsulated' for parameter 'Ducts'.",
          "Assigning option '8 ACH50' for parameter 'Infiltration'.",
          "Assigning option 'Year-Round, 3 days/wk' for parameter 'Natural Ventilation'.",
          "Assigning option 'None' for parameter 'Mechanical Ventilation'.",
          "Assigning option 'None' for parameter 'PV'.",
          "Calling ResidentialLocation measure with arguments:\nweather_directory -> ../../../../weather \nweather_file_name -> 0909238_United_States_TN_Davidson_47037_723270_36.13_-86.7_NSRDB_2.0.1_2012_AMY.epw \ndst_start_date -> April 7 \ndst_end_date -> October 26",
          "Found an existing weather file.",
          "Setting weather file.",
          "Setting site data.",
          "Setting Building America climate zone to Mixed-Humid.",
          "Setting mains water temperature profile with an average temperature of 68.1 F.",
          "Set daylight saving time from 2009-Apr-07 to 2009-Oct-26.",
          "Calling ResidentialGeometrySingleFamilyDetached measure with arguments:\nfoundation_type -> unfinished basement \nfoundation_height -> 8 \nnum_floors -> 2 \ngarage_width -> 24 \ngarage_depth -> 24 \ngarage_protrusion -> 0.5 \ngarage_pos -> Right \ntotal_ffa -> 2000 \nliving_height -> 8 \naspect_ratio -> 1.8 \nattic_type -> unfinished attic \nroof_type -> gable \nroof_pitch -> 6:12",
          "Set garage space.",
          "Set living space.",
          "Set living space|story 2.",
          "Set unfinished attic space.",
          "Set unfinished basement space.",
          "Set garage attic space.",
          "Calling ResidentialGeometryNumBedsAndBaths measure with arguments:\nnum_bedrooms -> 3 \nnum_bathrooms -> 2",
          "Calling ResidentialGeometryNumOccupants measure with arguments:\nnum_occ -> auto \nocc_gain -> 384.0 \nsens_frac -> 0.573 \nlat_frac -> 0.427 \nweekday_sch -> 1.00000, 1.00000, 1.00000, 1.00000, 1.00000, 1.00000, 1.00000, 0.88310, 0.40861, 0.24189, 0.24189, 0.24189, 0.24189, 0.24189, 0.24189, 0.24189, 0.29498, 0.55310, 0.89693, 0.89693, 0.89693, 1.00000, 1.00000, 1.00000 \nweekend_sch -> 1.00000, 1.00000, 1.00000, 1.00000, 1.00000, 1.00000, 1.00000, 0.88310, 0.40861, 0.24189, 0.24189, 0.24189, 0.24189, 0.24189, 0.24189, 0.24189, 0.29498, 0.55310, 0.89693, 0.89693, 0.89693, 1.00000, 1.00000, 1.00000 \nmonthly_sch -> 1.0, 1.0, 1.0, 1.0, 1.0, 1.0, 1.0, 1.0, 1.0, 1.0, 1.0, 1.0",
          "Calling ResidentialGeometryOrientation measure with arguments:\norientation -> 180",
          "The orientation of the building has changed.",
          "Calling ResidentialGeometryEaves measure with arguments:\nroof_structure -> truss, cantilever \neaves_depth -> 2",
          "Added residential eaves back",
          "Added residential eaves back 1",
          "Added residential eaves back 2",
          "Added residential eaves left",
          "Added residential eaves left 1",
          "Added residential eaves front",
          "Added residential eaves front 1",
          "Added residential eaves front 2",
          "Added residential eaves right",
          "Added residential eaves right 1",
          "Calling ResidentialGeometryDoorArea measure with arguments:\ndoor_area -> 20",
          "For unit 1 added 20.0 ft^2 door.",
          "Calling ResidentialGeometryWindowArea measure with arguments:\nfront_wwr -> 0.15 \nback_wwr -> 0.15 \nleft_wwr -> 0.15 \nright_wwr -> 0.15 \naspect_ratio -> 1.333 \nfront_area -> 0 \nback_area -> 0 \nleft_area -> 0 \nright_area -> 0",
          "Added 3 window(s), totaling 29.0 ft^2, to Surface 19.",
          "Added 2 window(s), totaling 22.3 ft^2, to Surface 21.",
          "Added 2 window(s), totaling 18.1 ft^2, to Surface 13.",
          "Added 5 window(s), totaling 50.9 ft^2, to Surface 17.",
          "Added 5 window(s), totaling 50.9 ft^2, to Surface 9.",
          "Added 3 window(s), totaling 28.3 ft^2, to Surface 16.",
          "Added 2 window(s), totaling 14.4 ft^2, to Surface 20.",
          "Added 3 window(s), totaling 28.3 ft^2, to Surface 8.",
          "Added 4 window(s), totaling 42.7 ft^2, to Surface 18.",
          "Added 2 window(s), totaling 13.9 ft^2, to Surface 10.",
          "Calling ResidentialGeometryOverhangs measure with arguments:\ndepth -> 0 \noffset -> 0 \nfront_facade -> false \nback_facade -> false \nleft_facade -> false \nright_facade -> false",
          "No overhangs were added or removed.",
          "Calling ResidentialGeometryNeighbors measure with arguments:\nleft_offset -> 15 \nright_offset -> 15 \nback_offset -> 0 \nfront_offset -> 0",
          "Created 'residential neighbors left' from 'Surface 39'",
          "Created 'residential neighbors left 1' from 'Surface 40'",
          "Created 'residential neighbors left 2' from 'Surface 42'",
          "Created 'residential neighbors left 3' from 'Surface 16'",
          "Created 'residential neighbors left 4' from 'Surface 17'",
          "Created 'residential neighbors left 5' from 'Surface 18'",
          "Created 'residential neighbors left 6' from 'Surface 19'",
          "Created 'residential neighbors left 7' from 'Surface 20'",
          "Created 'residential neighbors left 8' from 'Surface 21'",
          "Created 'residential neighbors left 9' from 'Surface 4'",
          "Created 'residential neighbors left 10' from 'Surface 5'",
          "Created 'residential neighbors left 11' from 'Surface 38'",
          "Created 'residential neighbors left 12' from 'Surface 8'",
          "Created 'residential neighbors left 13' from 'Surface 9'",
          "Created 'residential neighbors left 14' from 'Surface 10'",
          "Created 'residential neighbors left 15' from 'Surface 13'",
          "Created 'residential neighbors left 16' from 'Surface 45'",
          "Created 'residential neighbors left 17' from 'Surface 44'",
          "Created 'residential neighbors left 18' from 'Surface 25'",
          "Created 'residential neighbors left 19' from 'Surface 26'",
          "Created 'residential neighbors left 20' from 'Surface 27'",
          "Created 'residential neighbors left 21' from 'Surface 43'",
          "Created 'residential neighbors left 22' from 'residential eaves front 2'",
          "Created 'residential neighbors left 23' from 'residential eaves left'",
          "Created 'residential neighbors left 24' from 'residential eaves front 1'",
          "Created 'residential neighbors left 25' from 'residential eaves back 2'",
          "Created 'residential neighbors left 26' from 'residential eaves right'",
          "Created 'residential neighbors left 27' from 'residential eaves left 1'",
          "Created 'residential neighbors left 28' from 'residential eaves back 1'",
          "Created 'residential neighbors left 29' from 'residential eaves back'",
          "Created 'residential neighbors left 30' from 'residential eaves right 1'",
          "Created 'residential neighbors left 31' from 'residential eaves front'",
          "Created 'residential neighbors right' from 'Surface 39'",
          "Created 'residential neighbors right 1' from 'Surface 40'",
          "Created 'residential neighbors right 2' from 'Surface 42'",
          "Created 'residential neighbors right 3' from 'Surface 16'",
          "Created 'residential neighbors right 4' from 'Surface 17'",
          "Created 'residential neighbors right 5' from 'Surface 18'",
          "Created 'residential neighbors right 6' from 'Surface 19'",
          "Created 'residential neighbors right 7' from 'Surface 20'",
          "Created 'residential neighbors right 8' from 'Surface 21'",
          "Created 'residential neighbors right 9' from 'Surface 4'",
          "Created 'residential neighbors right 10' from 'Surface 5'",
          "Created 'residential neighbors right 11' from 'Surface 38'",
          "Created 'residential neighbors right 12' from 'Surface 8'",
          "Created 'residential neighbors right 13' from 'Surface 9'",
          "Created 'residential neighbors right 14' from 'Surface 10'",
          "Created 'residential neighbors right 15' from 'Surface 13'",
          "Created 'residential neighbors right 16' from 'Surface 45'",
          "Created 'residential neighbors right 17' from 'Surface 44'",
          "Created 'residential neighbors right 18' from 'Surface 25'",
          "Created 'residential neighbors right 19' from 'Surface 26'",
          "Created 'residential neighbors right 20' from 'Surface 27'",
          "Created 'residential neighbors right 21' from 'Surface 43'",
          "Created 'residential neighbors right 22' from 'residential eaves front 2'",
          "Created 'residential neighbors right 23' from 'residential eaves left'",
          "Created 'residential neighbors right 24' from 'residential eaves front 1'",
          "Created 'residential neighbors right 25' from 'residential eaves back 2'",
          "Created 'residential neighbors right 26' from 'residential eaves right'",
          "Created 'residential neighbors right 27' from 'residential eaves left 1'",
          "Created 'residential neighbors right 28' from 'residential eaves back 1'",
          "Created 'residential neighbors right 29' from 'residential eaves back'",
          "Created 'residential neighbors right 30' from 'residential eaves right 1'",
          "Created 'residential neighbors right 31' from 'residential eaves front'",
          "Calling ResidentialConstructionsUninsulatedSurfaces measure with no arguments.",
          "Material 'ExtStudAndAirWall' was created.",
          "Material 'ResExtWallSheathing' was created.",
          "Construction 'ExtUninsUnfinWall' was created with 2 materials (ResExtWallSheathing, ExtStudAndAirWall).",
          "Surface 'Surface 42' has been assigned construction 'ExtUninsUnfinWall'.",
          "Surface 'Surface 4' has been assigned construction 'ExtUninsUnfinWall'.",
          "Surface 'Surface 5' has been assigned construction 'ExtUninsUnfinWall'.",
          "Surface 'Surface 38' has been assigned construction 'ExtUninsUnfinWall'.",
          "Surface 'Surface 26' has been assigned construction 'ExtUninsUnfinWall'.",
          "Surface 'Surface 27' has been assigned construction 'ExtUninsUnfinWall'.",
          "Material 'FinStudAndAirFloor' was created.",
          "Construction 'FinUninsFinFloor' was created with 1 material (FinStudAndAirFloor).",
          "Surface 'Surface 36' has been assigned construction 'FinUninsFinFloor'.",
          "Surface 'Surface 14' has been assigned construction 'FinUninsFinFloor'.",
          "Material 'Concrete-4in' was created.",
          "Material 'Soil-12in' was created.",
          "Material 'Adiabatic' was created.",
          "Construction 'GrndUninsUnfinFloor' was created with 3 materials (Adiabatic, Soil-12in, Concrete-4in).",
          "Surface 'Surface 1' has been assigned construction 'GrndUninsUnfinFloor'.",
          "Calling ResidentialConstructionsCeilingsRoofsUnfinishedAttic measure with arguments:\nceil_r -> 19 \nceil_grade -> I \nceil_ins_thick_in -> 7.41 \nceil_ff -> 0.07 \nceil_joist_height -> 3.5 \nroof_cavity_r -> 0 \nroof_cavity_grade -> I \nroof_cavity_ins_thick_in -> 0 \nroof_ff -> 0.07 \nroof_fram_thick_in -> 7.25",
          "Material 'UAAdditionalCeilingIns' was created.",
          "Material 'UATrussandIns' was created.",
          "Construction 'FinInsUnfinUAFloor' was created with 2 materials (UATrussandIns, UAAdditionalCeilingIns).",
          "Surface 'Surface 37 Reversed' has been assigned construction 'FinInsUnfinUAFloor'.",
          "Construction 'RevFinInsUnfinUAFloor' was created with 2 materials (UAAdditionalCeilingIns, UATrussandIns).",
          "Surface 'Surface 37' has been assigned construction 'RevFinInsUnfinUAFloor'.",
          "Surface 'Surface 23' has been assigned construction 'FinInsUnfinUAFloor'.",
          "Surface 'Surface 22' has been assigned construction 'RevFinInsUnfinUAFloor'.",
          "Material 'UARoofIns' was created.",
          "Construction 'UnfinInsExtRoof' was created with 1 material (UARoofIns).",
          "Surface 'Surface 39' has been assigned construction 'UnfinInsExtRoof'.",
          "Surface 'Surface 40' has been assigned construction 'UnfinInsExtRoof'.",
          "Surface 'Surface 25' has been assigned construction 'UnfinInsExtRoof'.",
          "Surface 'Surface 43' has been assigned construction 'UnfinInsExtRoof'.",
          "Calling ResidentialConstructionsCeilingsRoofsSheathing measure with arguments:\nosb_thick_in -> 0.75 \nrigid_r -> 0 \nrigid_thick_in -> 0",
          "Material 'ResRoofSheathing' was created.",
          "Construction 'UnfinInsExtRoof 1' was created with 2 materials (ResRoofSheathing, UARoofIns).",
          "Surface 'Surface 39' has been assigned construction 'UnfinInsExtRoof 1'.",
          "Surface 'Surface 40' has been assigned construction 'UnfinInsExtRoof 1'.",
          "Surface 'Surface 25' has been assigned construction 'UnfinInsExtRoof 1'.",
          "Surface 'Surface 43' has been assigned construction 'UnfinInsExtRoof 1'.",
          "Removed construction 'UnfinInsExtRoof' because it was orphaned.",
          "Calling ResidentialConstructionsCeilingsRoofsRoofingMaterial measure with arguments:\nsolar_abs -> 0.85 \nemissivity -> 0.91 \nmaterial -> asphalt shingles \ncolor -> medium",
          "Material 'ResRoofMaterial' was created.",
          "Construction 'UnfinInsExtRoof 2' was created with 3 materials (ResRoofMaterial, ResRoofSheathing, UARoofIns).",
          "Surface 'Surface 39' has been assigned construction 'UnfinInsExtRoof 2'.",
          "Surface 'Surface 40' has been assigned construction 'UnfinInsExtRoof 2'.",
          "Surface 'Surface 25' has been assigned construction 'UnfinInsExtRoof 2'.",
          "Surface 'Surface 43' has been assigned construction 'UnfinInsExtRoof 2'.",
          "Removed construction 'UnfinInsExtRoof 1' because it was orphaned.",
          "Calling ResidentialConstructionsCeilingsRoofsThermalMass measure with arguments:\nthick_in1 -> 0.5 \nthick_in2 ->  \ncond1 -> 1.1112 \ncond2 ->  \ndens1 -> 50 \ndens2 ->  \nspecheat1 -> 0.2 \nspecheat2 -> ",
          "Material 'ResCeilingMass1' was created.",
          "Construction 'RevFinInsUnfinUAFloor 1' was created with 3 materials (ResCeilingMass1, UAAdditionalCeilingIns, UATrussandIns).",
          "Surface 'Surface 22' has been assigned construction 'RevFinInsUnfinUAFloor 1'.",
          "Construction 'FinInsUnfinUAFloor 1' was created with 3 materials (UATrussandIns, UAAdditionalCeilingIns, ResCeilingMass1).",
          "Surface 'Surface 23' has been assigned construction 'FinInsUnfinUAFloor 1'.",
          "Surface 'Surface 37' has been assigned construction 'RevFinInsUnfinUAFloor 1'.",
          "Surface 'Surface 37 Reversed' has been assigned construction 'FinInsUnfinUAFloor 1'.",
          "Construction 'FinUninsFinFloor 1' was created with 2 materials (ResCeilingMass1, FinStudAndAirFloor).",
          "Surface 'Surface 14' has been assigned construction 'FinUninsFinFloor 1'.",
          "Construction 'RevFinUninsFinFloor 1' was created with 2 materials (FinStudAndAirFloor, ResCeilingMass1).",
          "Surface 'Surface 36' has been assigned construction 'RevFinUninsFinFloor 1'.",
          "Removed construction 'FinInsUnfinUAFloor' because it was orphaned.",
          "Removed construction 'FinUninsFinFloor' because it was orphaned.",
          "Removed construction 'RevFinInsUnfinUAFloor' because it was orphaned.",
          "Calling ResidentialConstructionsFoundationsFloorsBasementUnfinished measure with arguments:\nwall_ins_height -> 0 \nwall_cavity_r -> 0 \nwall_cavity_grade -> I \nwall_cavity_depth -> 0 \nwall_cavity_insfills -> true \nwall_ff -> 0 \nwall_rigid_r -> 0 \nwall_rigid_thick_in -> 0 \nceil_cavity_r -> 19 \nceil_cavity_grade -> I \nceil_ff -> 0.13 \nceil_joist_height -> 9.25 \nexposed_perim -> auto",
          "Material 'Concrete-8in' was created.",
          "Material 'UFBaseWall-FicR' was created.",
          "Construction 'GrndInsUnfinBWall' was created with 3 materials (UFBaseWall-FicR, Soil-12in, Concrete-8in).",
          "Surface 'Surface 29' has been assigned construction 'GrndInsUnfinBWall'.",
          "Surface 'Surface 30' has been assigned construction 'GrndInsUnfinBWall'.",
          "Surface 'Surface 31' has been assigned construction 'GrndInsUnfinBWall'.",
          "Surface 'Surface 32' has been assigned construction 'GrndInsUnfinBWall'.",
          "Surface 'Surface 33' has been assigned construction 'GrndInsUnfinBWall'.",
          "Surface 'Surface 34' has been assigned construction 'GrndInsUnfinBWall'.",
          "Material 'UFBaseFloor-FicR' was created.",
          "Construction 'GrndUninsUnfinBFloor' was created with 3 materials (UFBaseFloor-FicR, Soil-12in, Concrete-4in).",
          "Surface 'Surface 28' has been assigned construction 'GrndUninsUnfinBFloor'.",
          "Material 'UFBsmtCeilingIns' was created.",
          "Construction 'UnfinBInsFinFloor' was created with 1 material (UFBsmtCeilingIns).",
          "Surface 'Surface 35' has been assigned construction 'UnfinBInsFinFloor'.",
          "Surface 'Surface 7' has been assigned construction 'UnfinBInsFinFloor'.",
          "Calling ResidentialConstructionsFoundationsFloorsInterzonalFloors measure with arguments:\ncavity_r -> 13 \ninstall_grade -> I \nframing_factor -> 0.13",
          "Material 'IntFloorIns' was created.",
          "Construction 'UnfinInsFinFloor' was created with 1 material (IntFloorIns).",
          "Surface 'Surface 15' has been assigned construction 'UnfinInsFinFloor'.",
          "Surface 'Surface 6' has been assigned construction 'UnfinInsFinFloor'.",
          "Calling ResidentialConstructionsFoundationsFloorsCovering measure with arguments:\ncovering_frac -> 0.8 \ncovering_r -> 2.08",
          "Material 'ResFloorCovering' was created.",
          "Construction 'UnfinInsFinFloor 1' was created with 2 materials (ResFloorCovering, IntFloorIns).",
          "Surface 'Surface 15' has been assigned construction 'UnfinInsFinFloor 1'.",
          "Construction 'RevUnfinInsFinFloor 1' was created with 2 materials (IntFloorIns, ResFloorCovering).",
          "Surface 'Surface 6' has been assigned construction 'RevUnfinInsFinFloor 1'.",
          "Construction 'RevFinUninsFinFloor 2' was created with 3 materials (FinStudAndAirFloor, ResCeilingMass1, ResFloorCovering).",
          "Surface 'Surface 36' has been assigned construction 'RevFinUninsFinFloor 2'.",
          "Construction 'FinUninsFinFloor 2' was created with 3 materials (ResFloorCovering, ResCeilingMass1, FinStudAndAirFloor).",
          "Surface 'Surface 14' has been assigned construction 'FinUninsFinFloor 2'.",
          "Construction 'UnfinBInsFinFloor 1' was created with 2 materials (ResFloorCovering, UFBsmtCeilingIns).",
          "Surface 'Surface 7' has been assigned construction 'UnfinBInsFinFloor 1'.",
          "Construction 'RevUnfinBInsFinFloor 1' was created with 2 materials (UFBsmtCeilingIns, ResFloorCovering).",
          "Surface 'Surface 35' has been assigned construction 'RevUnfinBInsFinFloor 1'.",
          "Removed construction 'FinUninsFinFloor 1' because it was orphaned.",
          "Removed construction 'RevFinUninsFinFloor 1' because it was orphaned.",
          "Removed construction 'UnfinBInsFinFloor' because it was orphaned.",
          "Removed construction 'UnfinInsFinFloor' because it was orphaned.",
          "Calling ResidentialConstructionsFoundationsFloorsSheathing measure with arguments:\nosb_thick_in -> 0.75 \nrigid_r -> 0 \nrigid_thick_in -> 0",
          "Material 'ResFloorSheathing' was created.",
          "Construction 'UnfinInsFinFloor 2' was created with 3 materials (ResFloorSheathing, ResFloorCovering, IntFloorIns).",
          "Surface 'Surface 15' has been assigned construction 'UnfinInsFinFloor 2'.",
          "Construction 'RevUnfinInsFinFloor 2' was created with 3 materials (IntFloorIns, ResFloorCovering, ResFloorSheathing).",
          "Surface 'Surface 6' has been assigned construction 'RevUnfinInsFinFloor 2'.",
          "Construction 'RevFinUninsFinFloor 3' was created with 4 materials (FinStudAndAirFloor, ResCeilingMass1, ResFloorSheathing, ResFloorCovering).",
          "Surface 'Surface 36' has been assigned construction 'RevFinUninsFinFloor 3'.",
          "Construction 'FinUninsFinFloor 3' was created with 4 materials (ResFloorCovering, ResFloorSheathing, ResCeilingMass1, FinStudAndAirFloor).",
          "Surface 'Surface 14' has been assigned construction 'FinUninsFinFloor 3'.",
          "Construction 'UnfinBInsFinFloor 2' was created with 3 materials (ResFloorSheathing, ResFloorCovering, UFBsmtCeilingIns).",
          "Surface 'Surface 7' has been assigned construction 'UnfinBInsFinFloor 2'.",
          "Construction 'RevUnfinBInsFinFloor 2' was created with 3 materials (UFBsmtCeilingIns, ResFloorCovering, ResFloorSheathing).",
          "Surface 'Surface 35' has been assigned construction 'RevUnfinBInsFinFloor 2'.",
          "Removed construction 'FinUninsFinFloor 2' because it was orphaned.",
          "Removed construction 'RevFinUninsFinFloor 2' because it was orphaned.",
          "Removed construction 'RevUnfinBInsFinFloor 1' because it was orphaned.",
          "Removed construction 'RevUnfinInsFinFloor 1' because it was orphaned.",
          "Removed construction 'UnfinBInsFinFloor 1' because it was orphaned.",
          "Removed construction 'UnfinInsFinFloor 1' because it was orphaned.",
          "Calling ResidentialConstructionsFoundationsFloorsThermalMass measure with arguments:\nthick_in -> 0.625 \ncond -> 0.8004 \ndens -> 34.0 \nspecheat -> 0.29",
          "Material 'ResFloorMass' was created.",
          "Construction 'UnfinInsFinFloor 3' was created with 4 materials (ResFloorSheathing, ResFloorCovering, IntFloorIns, ResFloorMass).",
          "Surface 'Surface 15' has been assigned construction 'UnfinInsFinFloor 3'.",
          "Construction 'RevUnfinInsFinFloor 3' was created with 4 materials (ResFloorMass, IntFloorIns, ResFloorCovering, ResFloorSheathing).",
          "Surface 'Surface 6' has been assigned construction 'RevUnfinInsFinFloor 3'.",
          "Construction 'RevFinUninsFinFloor 4' was created with 5 materials (FinStudAndAirFloor, ResCeilingMass1, ResFloorSheathing, ResFloorMass, ResFloorCovering).",
          "Surface 'Surface 36' has been assigned construction 'RevFinUninsFinFloor 4'.",
          "Construction 'FinUninsFinFloor 4' was created with 5 materials (ResFloorCovering, ResFloorMass, ResFloorSheathing, ResCeilingMass1, FinStudAndAirFloor).",
          "Surface 'Surface 14' has been assigned construction 'FinUninsFinFloor 4'.",
          "Construction 'UnfinBInsFinFloor 3' was created with 4 materials (ResFloorSheathing, ResFloorCovering, UFBsmtCeilingIns, ResFloorMass).",
          "Surface 'Surface 7' has been assigned construction 'UnfinBInsFinFloor 3'.",
          "Construction 'RevUnfinBInsFinFloor 3' was created with 4 materials (ResFloorMass, UFBsmtCeilingIns, ResFloorCovering, ResFloorSheathing).",
[...]
          "Registering 44.08 for net_site_energy_mbtu.",
          "Registering 12711.11 for total_site_electricity_kwh.",
          "Registering 12711.11 for net_site_electricity_kwh.",
          "Registering 0.0 for electricity_heating_kwh.",
          "Registering 1705.56 for electricity_cooling_kwh.",
          "Registering 1777.78 for electricity_interior_lighting_kwh.",
          "Registering 350.0 for electricity_exterior_lighting_kwh.",
          "Registering 5352.78 for electricity_interior_equipment_kwh.",
          "Registering 550.0 for electricity_fans_kwh.",
          "Registering 0.0 for electricity_pumps_kwh.",
          "Registering 2975.0 for electricity_water_systems_kwh.",
          "Registering 0.0 for electricity_pv_kwh.",
          "Registering 7.11 for total_site_natural_gas_therm.",
          "Registering 0.0 for natural_gas_heating_therm.",
          "Registering 7.11 for natural_gas_interior_equipment_therm.",
          "Registering 0.0 for natural_gas_water_systems_therm.",
          "Registering 0.0 for total_site_other_fuel_mbtu.",
          "Registering 0.0 for other_fuel_heating_mbtu.",
          "Registering 0.0 for other_fuel_interior_equipment_mbtu.",
          "Registering 0.0 for other_fuel_water_systems_mbtu.",
          "Registering 0.0 for hours_heating_setpoint_not_met.",
          "Registering 4.17 for hours_cooling_setpoint_not_met.",
          "Registering 7978.36 for hvac_cooling_capacity_w.",
          "Registering 0.0 for hvac_heating_capacity_w.",
          "Registering 800.0 for weight.",
          "Registering  for upgrade_name.",
          "Registering (blank) for upgrade_cost_usd."
        ],
        "step_result": "Success",
        "step_values": [
          {
            "name": "total_site_energy_mbtu",
            "value": 44.082974265772386
          },
          {
            "name": "net_site_energy_mbtu",
            "value": 44.082974265772386
          },
          {
            "name": "total_site_electricity_kwh",
            "value": 12711.111111111111
          },
          {
            "name": "net_site_electricity_kwh",
            "value": 12711.111111111111
          },
          {
            "name": "electricity_heating_kwh",
            "value": 0
          },
          {
            "name": "electricity_cooling_kwh",
            "value": 1705.5555555555554
          },
          {
            "name": "electricity_interior_lighting_kwh",
            "value": 1777.7777777777778
          },
          {
            "name": "electricity_exterior_lighting_kwh",
            "value": 350
          },
          {
            "name": "electricity_interior_equipment_kwh",
            "value": 5352.777777777778
          },
          {
            "name": "electricity_fans_kwh",
            "value": 550
          },
          {
            "name": "electricity_pumps_kwh",
            "value": 0
          },
          {
            "name": "electricity_water_systems_kwh",
            "value": 2975
          },
          {
            "name": "electricity_pv_kwh",
            "value": 0
          },
          {
            "name": "total_site_natural_gas_therm",
            "value": 7.108628402349879
          },
          {
            "name": "natural_gas_heating_therm",
            "value": 0
          },
          {
            "name": "natural_gas_interior_equipment_therm",
            "value": 7.108628402349879
          },
          {
            "name": "natural_gas_water_systems_therm",
            "value": 0
          },
          {
            "name": "total_site_other_fuel_mbtu",
            "value": 0
          },
          {
            "name": "other_fuel_heating_mbtu",
            "value": 0
          },
          {
            "name": "other_fuel_interior_equipment_mbtu",
            "value": 0
          },
          {
            "name": "other_fuel_water_systems_mbtu",
            "value": 0
          },
          {
            "name": "hours_heating_setpoint_not_met",
            "value": 0
          },
          {
            "name": "hours_cooling_setpoint_not_met",
            "value": 4.17
          },
          {
            "name": "hvac_cooling_capacity_w",
            "value": 7978.36105981256
          },
          {
            "name": "hvac_heating_capacity_w",
            "value": 0
          },
          {
            "name": "weight",
            "value": 800
          },
          {
            "name": "upgrade_name",
            "value": ""
          },
          {
            "name": "upgrade_cost_usd",
            "value": ""
          }
        ],
        "step_warnings": []
      }
    },
    {
      "arguments": {
        "inc_output_variables": false,
        "reporting_frequency": "Hourly"
      },
      "description": "Exports all available hourly timeseries enduses to csv, and uses them for utility bill calculations.",
      "measure_dir_name": "TimeseriesCSVExport",
      "name": "timeseries_csv_export",
      "result": {
        "completed_at": "20170925T164101Z",
        "measure_class_name": "TimeseriesCSVExport",
        "measure_display_name": "Timeseries CSV Export",
        "measure_name": "timeseries_csv_export",
        "measure_taxonomy": "Reporting.QAQC",
        "measure_type": "ReportingMeasure",
        "measure_uid": "2a3442c1-944d-4e91-9e11-11e0cf368c64",
        "measure_version_id": "e24bea3e-936c-4552-8155-22a413950ee3",
        "measure_version_modified": "20170925T144524Z",
        "measure_xml_checksum": "15BF4E57",
        "started_at": "20170925T164008Z",
        "stderr": "",
        "stdout": "",
        "step_errors": [],
        "step_files": [],
        "step_final_condition": "CSV file saved to <a href='file:////mnt/openstudio/analysis_fe821d2c-df1e-4105-9ee6-6c7fef1463ae/data_point_e6e545b3-faec-46bc-bf58-434a79794388/run/enduse_timeseries.csv'>enduse_timeseries.csv</a>.",
        "step_info": [
          "Exporting Heating:Electricity",
          "Exporting Heating:Gas",
          "Exporting Heating:DistrictCooling",
          "Exporting Heating:DistrictHeating",
          "Exporting Heating:Water",
          "Exporting Heating:FuelOil#1",
          "Exporting Heating:Propane",
          "Exporting Cooling:Electricity",
          "Exporting Cooling:Gas",
          "Exporting Cooling:DistrictCooling",
          "Exporting Cooling:DistrictHeating",
          "Exporting Cooling:Water",
          "Exporting Cooling:FuelOil#1",
          "Exporting Cooling:Propane",
          "Exporting InteriorLights:Electricity",
          "Exporting InteriorLights:Gas",
          "Exporting InteriorLights:DistrictCooling",
          "Exporting InteriorLights:DistrictHeating",
          "Exporting InteriorLights:Water",
          "Exporting InteriorLights:FuelOil#1",
          "Exporting InteriorLights:Propane",
          "Exporting ExteriorLights:Electricity",
          "Exporting ExteriorLights:Gas",
          "Exporting ExteriorLights:DistrictCooling",
          "Exporting ExteriorLights:DistrictHeating",
          "Exporting ExteriorLights:Water",
          "Exporting ExteriorLights:FuelOil#1",
          "Exporting ExteriorLights:Propane",
          "Exporting InteriorEquipment:Electricity",
          "Exporting InteriorEquipment:Gas",
          "Exporting InteriorEquipment:DistrictCooling",
          "Exporting InteriorEquipment:DistrictHeating",
          "Exporting InteriorEquipment:Water",
          "Exporting InteriorEquipment:FuelOil#1",
          "Exporting InteriorEquipment:Propane",
          "Exporting ExteriorEquipment:Electricity",
          "Exporting ExteriorEquipment:Gas",
          "Exporting ExteriorEquipment:DistrictCooling",
          "Exporting ExteriorEquipment:DistrictHeating",
          "Exporting ExteriorEquipment:Water",
          "Exporting ExteriorEquipment:FuelOil#1",
          "Exporting ExteriorEquipment:Propane",
          "Exporting Fans:Electricity",
          "Exporting Fans:Gas",
          "Exporting Fans:DistrictCooling",
          "Exporting Fans:DistrictHeating",
          "Exporting Fans:Water",
          "Exporting Fans:FuelOil#1",
          "Exporting Fans:Propane",
          "Exporting Pumps:Electricity",
          "Exporting Pumps:Gas",
          "Exporting Pumps:DistrictCooling",
          "Exporting Pumps:DistrictHeating",
          "Exporting Pumps:Water",
          "Exporting Pumps:FuelOil#1",
          "Exporting Pumps:Propane",
          "Exporting HeatRejection:Electricity",
          "Exporting HeatRejection:Gas",
          "Exporting HeatRejection:DistrictCooling",
          "Exporting HeatRejection:DistrictHeating",
          "Exporting HeatRejection:Water",
          "Exporting HeatRejection:FuelOil#1",
          "Exporting HeatRejection:Propane",
          "Exporting Humidifier:Electricity",
          "Exporting Humidifier:Gas",
          "Exporting Humidifier:DistrictCooling",
          "Exporting Humidifier:DistrictHeating",
          "Exporting Humidifier:Water",
          "Exporting Humidifier:FuelOil#1",
          "Exporting Humidifier:Propane",
          "Exporting HeatRecovery:Electricity",
          "Exporting HeatRecovery:Gas",
          "Exporting HeatRecovery:DistrictCooling",
          "Exporting HeatRecovery:DistrictHeating",
          "Exporting HeatRecovery:Water",
          "Exporting HeatRecovery:FuelOil#1",
          "Exporting HeatRecovery:Propane",
          "Exporting WaterSystems:Electricity",
          "Exporting WaterSystems:Gas",
          "Exporting WaterSystems:DistrictCooling",
          "Exporting WaterSystems:DistrictHeating",
          "Exporting WaterSystems:Water",
          "Exporting WaterSystems:FuelOil#1",
          "Exporting WaterSystems:Propane",
          "Exporting Refrigeration:Electricity",
          "Exporting Refrigeration:Gas",
          "Exporting Refrigeration:DistrictCooling",
          "Exporting Refrigeration:DistrictHeating",
          "Exporting Refrigeration:Water",
          "Exporting Refrigeration:FuelOil#1",
          "Exporting Refrigeration:Propane",
          "Exporting Generators:Electricity",
          "Exporting Generators:Gas",
          "Exporting Generators:DistrictCooling",
          "Exporting Generators:DistrictHeating",
          "Exporting Generators:Water",
          "Exporting Generators:FuelOil#1",
          "Exporting Generators:Propane",
          "Exporting Electricity:Facility",
          "Exporting Gas:Facility",
          "Exporting DistrictCooling:Facility",
          "Exporting DistrictHeating:Facility",
          "Exporting Water:Facility",
          "Exporting FuelOil#1:Facility",
          "Exporting Propane:Facility"
        ],
        "step_result": "Success",
        "step_values": [
          {
            "name": "reporting_frequency",
            "value": "Hourly"
          },
          {
            "name": "inc_output_variables",
            "value": false
          }
        ],
        "step_warnings": [
          "No data found for Hourly Cooling:DistrictCooling .",
          "No data found for Hourly ExteriorEquipment:DistrictCooling .",
          "No data found for Hourly ExteriorLights:DistrictCooling .",
          "No data found for Hourly Fans:DistrictCooling .",
          "No data found for Hourly Generators:DistrictCooling .",
          "No data found for Hourly HeatRecovery:DistrictCooling .",
          "No data found for Hourly HeatRejection:DistrictCooling .",
          "No data found for Hourly Heating:DistrictCooling .",
          "No data found for Hourly Humidifier:DistrictCooling .",
          "No data found for Hourly InteriorEquipment:DistrictCooling .",
          "No data found for Hourly InteriorLights:DistrictCooling .",
          "No data found for Hourly Pumps:DistrictCooling .",
          "No data found for Hourly Refrigeration:DistrictCooling .",
          "No data found for Hourly WaterSystems:DistrictCooling .",
          "No data found for Hourly DistrictCooling:Facility .",
          "No data found for Hourly Cooling:DistrictHeating .",
          "No data found for Hourly ExteriorEquipment:DistrictHeating .",
          "No data found for Hourly ExteriorLights:DistrictHeating .",
          "No data found for Hourly Fans:DistrictHeating .",
          "No data found for Hourly Generators:DistrictHeating .",
          "No data found for Hourly HeatRecovery:DistrictHeating .",
          "No data found for Hourly HeatRejection:DistrictHeating .",
          "No data found for Hourly Heating:DistrictHeating .",
          "No data found for Hourly Humidifier:DistrictHeating .",
          "No data found for Hourly InteriorEquipment:DistrictHeating .",
          "No data found for Hourly InteriorLights:DistrictHeating .",
          "No data found for Hourly Pumps:DistrictHeating .",
          "No data found for Hourly Refrigeration:DistrictHeating .",
          "No data found for Hourly WaterSystems:DistrictHeating .",
          "No data found for Hourly DistrictHeating:Facility .",
          "No data found for Hourly ExteriorEquipment:Electricity .",
          "No data found for Hourly Generators:Electricity .",
          "No data found for Hourly HeatRecovery:Electricity .",
          "No data found for Hourly HeatRejection:Electricity .",
          "No data found for Hourly Heating:Electricity .",
          "No data found for Hourly Humidifier:Electricity .",
          "No data found for Hourly Refrigeration:Electricity .",
          "No data found for Hourly Cooling:FuelOil#1 .",
          "No data found for Hourly ExteriorEquipment:FuelOil#1 .",
          "No data found for Hourly ExteriorLights:FuelOil#1 .",
          "No data found for Hourly Fans:FuelOil#1 .",
          "No data found for Hourly Generators:FuelOil#1 .",
          "No data found for Hourly HeatRecovery:FuelOil#1 .",
          "No data found for Hourly HeatRejection:FuelOil#1 .",
          "No data found for Hourly Heating:FuelOil#1 .",
          "No data found for Hourly Humidifier:FuelOil#1 .",
          "No data found for Hourly InteriorEquipment:FuelOil#1 .",
          "No data found for Hourly InteriorLights:FuelOil#1 .",
          "No data found for Hourly Pumps:FuelOil#1 .",
          "No data found for Hourly Refrigeration:FuelOil#1 .",
          "No data found for Hourly WaterSystems:FuelOil#1 .",
          "No data found for Hourly FuelOil#1:Facility .",
          "No data found for Hourly Cooling:Gas .",
          "No data found for Hourly ExteriorEquipment:Gas .",
          "No data found for Hourly ExteriorLights:Gas .",
          "No data found for Hourly Fans:Gas .",
          "No data found for Hourly Generators:Gas .",
          "No data found for Hourly HeatRecovery:Gas .",
          "No data found for Hourly HeatRejection:Gas .",
          "No data found for Hourly Heating:Gas .",
          "No data found for Hourly Humidifier:Gas .",
          "No data found for Hourly InteriorLights:Gas .",
          "No data found for Hourly Pumps:Gas .",
          "No data found for Hourly Refrigeration:Gas .",
          "No data found for Hourly WaterSystems:Gas .",
          "No data found for Hourly Cooling:Propane .",
          "No data found for Hourly ExteriorEquipment:Propane .",
          "No data found for Hourly ExteriorLights:Propane .",
          "No data found for Hourly Fans:Propane .",
          "No data found for Hourly Generators:Propane .",
          "No data found for Hourly HeatRecovery:Propane .",
          "No data found for Hourly HeatRejection:Propane .",
          "No data found for Hourly Heating:Propane .",
          "No data found for Hourly Humidifier:Propane .",
          "No data found for Hourly InteriorEquipment:Propane .",
          "No data found for Hourly InteriorLights:Propane .",
          "No data found for Hourly Pumps:Propane .",
          "No data found for Hourly Refrigeration:Propane .",
          "No data found for Hourly WaterSystems:Propane .",
          "No data found for Hourly Propane:Facility .",
          "No data found for Hourly Cooling:Water .",
          "No data found for Hourly ExteriorEquipment:Water .",
          "No data found for Hourly ExteriorLights:Water .",
          "No data found for Hourly Fans:Water .",
          "No data found for Hourly Generators:Water .",
          "No data found for Hourly HeatRecovery:Water .",
          "No data found for Hourly HeatRejection:Water .",
          "No data found for Hourly Heating:Water .",
          "No data found for Hourly Humidifier:Water .",
          "No data found for Hourly InteriorEquipment:Water .",
          "No data found for Hourly InteriorLights:Water .",
          "No data found for Hourly Pumps:Water .",
          "No data found for Hourly Refrigeration:Water ."
        ]
      }
    },
    {
      "arguments": {},
      "description": "Removes a significant portion of the saved results from each run, helping to alleviate memory problems.",
      "measure_dir_name": "ServerDirectoryCleanup",
      "name": "server_directory_cleanup",
      "result": {
        "completed_at": "20170925T164101Z",
        "measure_class_name": "ServerDirectoryCleanup",
        "measure_display_name": "Server Directory Cleanup",
        "measure_name": "server_directory_cleanup",
        "measure_taxonomy": "Calibration",
        "measure_type": "ReportingMeasure",
        "measure_uid": "ec7d04ad-0b7b-495b-825a-e1b6d28d1d3f",
        "measure_version_id": "06036ce2-8e98-45e1-9043-78e2aa60a26a",
        "measure_version_modified": "20170511T212356Z",
        "measure_xml_checksum": "5F1EDF75",
        "started_at": "20170925T164101Z",
        "stderr": "",
        "stdout": "[OpenStudio.Measure] <0> OSArgumentVector is deprecated, use OpenStudio::Measure::OSArgumentVector instead.\n",
        "step_errors": [],
        "step_files": [],
        "step_final_condition": "The following files were in the local run directory following the execution of this measure: 001_BuildingCharacteristicsReport, 001_TimeseriesCSVExport, started.job, stdout-energyplus, .., in.idf, eplusout.err, eplusout.end, 000_BuildExistingModel, eplustbl.htm, 001_ServerDirectoryCleanup, eplusout.rdd, eplusout.mtr, 003_TimeseriesCSVExport, eplusout.mtd, run.log, 001_SimulationOutputReport, sqlite.err, 004_ServerDirectoryCleanup, enduse_timeseries.csv, in.epw, measure_attributes.json, 002_SimulationOutputReport, ., stdout-expandobject, measures.osw.",
        "step_info": [
          "Deleted ./../eplusout.sql from the run directory.",
          "Deleted ./../eplusout.audit from the run directory.",
          "Deleted ./../in.osm from the run directory.",
          "Deleted ./../eplusout.bnd from the run directory.",
          "Deleted ./../eplusout.eio from the run directory.",
          "Deleted ./../eplusout.shd from the run directory.",
          "Deleted ./../eplusout.mdd from the run directory.",
          "Deleted ./../eplusout.eso from the run directory.",
          "Deleted ./../pre-preprocess.idf from the run directory."
        ],
        "step_initial_condition": "The following files were in the local run directory prior to the execution of this measure: 001_BuildingCharacteristicsReport, in.osm, 001_TimeseriesCSVExport, started.job, stdout-energyplus, eplusout.sql, .., eplusout.audit, in.idf, eplusout.err, eplusout.end, eplusout.eio, 000_BuildExistingModel, eplustbl.htm, 001_ServerDirectoryCleanup, eplusout.rdd, eplusout.mdd, eplusout.mtr, eplusout.eso, 003_TimeseriesCSVExport, eplusout.bnd, eplusout.mtd, run.log, 001_SimulationOutputReport, sqlite.err, 004_ServerDirectoryCleanup, enduse_timeseries.csv, in.epw, measure_attributes.json, 002_SimulationOutputReport, eplusout.shd, pre-preprocess.idf, ., stdout-expandobject, measures.osw.",
        "step_result": "Success",
        "step_values": [],
        "step_warnings": []
      }
    }
  ],
  "updated_at": "20170925T164105Z",
  "weather_file": "Placeholder.epw"
}