{
  "completed_at": "20190208T214954Z",
  "completed_status": "Success",
  "created_at": "2019-02-08 21:48:31 +0000",
  "current_step": 6,
  "description": "",
  "eplusout_err": "Program Version,EnergyPlus, Version 9.0.1-bb7ca4f0da, YMD=2019.02.08 21:49,\n   ************* Beginning Zone Sizing Calculations\n   ** Warning ** ProcessScheduleInput: Schedule:Day:Interval=\"RES MV_1 BATH EXHAUST SCHEDULE ALLDAY1\", Blank Schedule Type Limits Name input -- will not be validated.\n   ** Warning ** ProcessScheduleInput: Schedule:Day:Interval=\"RES MV_1 BATH EXHAUST SCHEDULE ALLDAY10\", Blank Schedule Type Limits Name input -- will not be validated.\n   ** Warning ** ProcessScheduleInput: Schedule:Day:Interval=\"RES MV_1 BATH EXHAUST SCHEDULE ALLDAY11\", Blank Schedule Type Limits Name input -- will not be validated.\n   ** Warning ** ProcessScheduleInput: Schedule:Day:Interval=\"RES MV_1 BATH EXHAUST SCHEDULE ALLDAY12\", Blank Schedule Type Limits Name input -- will not be validated.\n   ** Warning ** ProcessScheduleInput: Schedule:Day:Interval=\"RES MV_1 BATH EXHAUST SCHEDULE ALLDAY2\", Blank Schedule Type Limits Name input -- will not be validated.\n   ** Warning ** ProcessScheduleInput: Schedule:Day:Interval=\"RES MV_1 BATH EXHAUST SCHEDULE ALLDAY3\", Blank Schedule Type Limits Name input -- will not be validated.\n   ** Warning ** ProcessScheduleInput: Schedule:Day:Interval=\"RES MV_1 BATH EXHAUST SCHEDULE ALLDAY4\", Blank Schedule Type Limits Name input -- will not be validated.\n   ** Warning ** ProcessScheduleInput: Schedule:Day:Interval=\"RES MV_1 BATH EXHAUST SCHEDULE ALLDAY5\", Blank Schedule Type Limits Name input -- will not be validated.\n   ** Warning ** ProcessScheduleInput: Schedule:Day:Interval=\"RES MV_1 BATH EXHAUST SCHEDULE ALLDAY6\", Blank Schedule Type Limits Name input -- will not be validated.\n   ** Warning ** ProcessScheduleInput: Schedule:Day:Interval=\"RES MV_1 BATH EXHAUST SCHEDULE ALLDAY7\", Blank Schedule Type Limits Name input -- will not be validated.\n   ** Warning ** ProcessScheduleInput: Schedule:Day:Interval=\"RES MV_1 BATH EXHAUST SCHEDULE ALLDAY8\", Blank Schedule Type Limits Name input -- will not be validated.\n   ** Warning ** ProcessScheduleInput: Schedule:Day:Interval=\"RES MV_1 BATH EXHAUST SCHEDULE ALLDAY9\", Blank Schedule Type Limits Name input -- will not be validated.\n   ** Warning ** ProcessScheduleInput: Schedule:Day:Interval=\"RES MV_1 BATH EXHAUST SCHEDULE SUMMER DESIGN\", Blank Schedule Type Limits Name input -- will not be validated.\n   ** Warning ** ProcessScheduleInput: Schedule:Day:Interval=\"RES MV_1 BATH EXHAUST SCHEDULE WINTER DESIGN\", Blank Schedule Type Limits Name input -- will not be validated.\n   ** Warning ** ProcessScheduleInput: Schedule:Day:Interval=\"RES MV_1 RANGE EXHAUST SCHEDULE ALLDAY1\", Blank Schedule Type Limits Name input -- will not be validated.\n   ** Warning ** ProcessScheduleInput: Schedule:Day:Interval=\"RES MV_1 RANGE EXHAUST SCHEDULE ALLDAY10\", Blank Schedule Type Limits Name input -- will not be validated.\n   ** Warning ** ProcessScheduleInput: Schedule:Day:Interval=\"RES MV_1 RANGE EXHAUST SCHEDULE ALLDAY11\", Blank Schedule Type Limits Name input -- will not be validated.\n   ** Warning ** ProcessScheduleInput: Schedule:Day:Interval=\"RES MV_1 RANGE EXHAUST SCHEDULE ALLDAY12\", Blank Schedule Type Limits Name input -- will not be validated.\n   ** Warning ** ProcessScheduleInput: Schedule:Day:Interval=\"RES MV_1 RANGE EXHAUST SCHEDULE ALLDAY2\", Blank Schedule Type Limits Name input -- will not be validated.\n   ** Warning ** ProcessScheduleInput: Schedule:Day:Interval=\"RES MV_1 RANGE EXHAUST SCHEDULE ALLDAY3\", Blank Schedule Type Limits Name input -- will not be validated.\n   ** Warning ** ProcessScheduleInput: Schedule:Day:Interval=\"RES MV_1 RANGE EXHAUST SCHEDULE ALLDAY4\", Blank Schedule Type Limits Name input -- will not be validated.\n   ** Warning ** ProcessScheduleInput: Schedule:Day:Interval=\"RES MV_1 RANGE EXHAUST SCHEDULE ALLDAY5\", Blank Schedule Type Limits Name input -- will not be validated.\n   ** Warning ** ProcessScheduleInput: Schedule:Day:Interval=\"RES MV_1 RANGE EXHAUST SCHEDULE ALLDAY6\", Blank Schedule Type Limits Name input -- will not be validated.\n   ** Warning ** ProcessScheduleInput: Schedule:Day:Interval=\"RES MV_1 RANGE EXHAUST SCHEDULE ALLDAY7\", Blank Schedule Type Limits Name input -- will not be validated.\n   ** Warning ** ProcessScheduleInput: Schedule:Day:Interval=\"RES MV_1 RANGE EXHAUST SCHEDULE ALLDAY8\", Blank Schedule Type Limits Name input -- will not be validated.\n   ** Warning ** ProcessScheduleInput: Schedule:Day:Interval=\"RES MV_1 RANGE EXHAUST SCHEDULE ALLDAY9\", Blank Schedule Type Limits Name input -- will not be validated.\n   ** Warning ** ProcessScheduleInput: Schedule:Day:Interval=\"RES MV_1 RANGE EXHAUST SCHEDULE SUMMER DESIGN\", Blank Schedule Type Limits Name input -- will not be validated.\n   ** Warning ** ProcessScheduleInput: Schedule:Day:Interval=\"RES MV_1 RANGE EXHAUST SCHEDULE WINTER DESIGN\", Blank Schedule Type Limits Name input -- will not be validated.\n   ** Warning ** ProcessScheduleInput: Schedule:Day:Interval=\"RES NV_1 AVAILABILITY SCHEDULE ALLDAY1 ON\", Blank Schedule Type Limits Name input -- will not be validated.\n   ** Warning ** ProcessScheduleInput: Schedule:Day:Interval=\"RES NV_1 AVAILABILITY SCHEDULE ALLDAY1 ON 1\", Blank Schedule Type Limits Name input -- will not be validated.\n   ** Warning ** ProcessScheduleInput: Schedule:Day:Interval=\"RES NV_1 AVAILABILITY SCHEDULE ALLDAY1 ON 10\", Blank Schedule Type Limits Name input -- will not be validated.\n   ** Warning ** ProcessScheduleInput: Schedule:Day:Interval=\"RES NV_1 AVAILABILITY SCHEDULE ALLDAY1 ON 11\", Blank Schedule Type Limits Name input -- will not be validated.\n   ** Warning ** ProcessScheduleInput: Schedule:Day:Interval=\"RES NV_1 AVAILABILITY SCHEDULE ALLDAY1 ON 2\", Blank Schedule Type Limits Name input -- will not be validated.\n   ** Warning ** ProcessScheduleInput: Schedule:Day:Interval=\"RES NV_1 AVAILABILITY SCHEDULE ALLDAY1 ON 3\", Blank Schedule Type Limits Name input -- will not be validated.\n   ** Warning ** ProcessScheduleInput: Schedule:Day:Interval=\"RES NV_1 AVAILABILITY SCHEDULE ALLDAY1 ON 4\", Blank Schedule Type Limits Name input -- will not be validated.\n   ** Warning ** ProcessScheduleInput: Schedule:Day:Interval=\"RES NV_1 AVAILABILITY SCHEDULE ALLDAY1 ON 5\", Blank Schedule Type Limits Name input -- will not be validated.\n   ** Warning ** ProcessScheduleInput: Schedule:Day:Interval=\"RES NV_1 AVAILABILITY SCHEDULE ALLDAY1 ON 6\", Blank Schedule Type Limits Name input -- will not be validated.\n   ** Warning ** ProcessScheduleInput: Schedule:Day:Interval=\"RES NV_1 AVAILABILITY SCHEDULE ALLDAY1 ON 7\", Blank Schedule Type Limits Name input -- will not be validated.\n   ** Warning ** ProcessScheduleInput: Schedule:Day:Interval=\"RES NV_1 AVAILABILITY SCHEDULE ALLDAY1 ON 8\", Blank Schedule Type Limits Name input -- will not be validated.\n   ** Warning ** ProcessScheduleInput: Schedule:Day:Interval=\"RES NV_1 AVAILABILITY SCHEDULE ALLDAY1 ON 9\", Blank Schedule Type Limits Name input -- will not be validated.\n   ** Warning ** ProcessScheduleInput: Schedule:Day:Interval=\"RES NV_1 TEMP SCHEDULE ALLDAY1\", Blank Schedule Type Limits Name input -- will not be validated.\n   ** Warning ** ProcessScheduleInput: Schedule:Day:Interval=\"RES NV_1 TEMP SCHEDULE ALLDAY10\", Blank Schedule Type Limits Name input -- will not be validated.\n   ** Warning ** ProcessScheduleInput: Schedule:Day:Interval=\"RES NV_1 TEMP SCHEDULE ALLDAY11\", Blank Schedule Type Limits Name input -- will not be validated.\n   ** Warning ** ProcessScheduleInput: Schedule:Day:Interval=\"RES NV_1 TEMP SCHEDULE ALLDAY12\", Blank Schedule Type Limits Name input -- will not be validated.\n   ** Warning ** ProcessScheduleInput: Schedule:Day:Interval=\"RES NV_1 TEMP SCHEDULE ALLDAY2\", Blank Schedule Type Limits Name input -- will not be validated.\n   ** Warning ** ProcessScheduleInput: Schedule:Day:Interval=\"RES NV_1 TEMP SCHEDULE ALLDAY3\", Blank Schedule Type Limits Name input -- will not be validated.\n   ** Warning ** ProcessScheduleInput: Schedule:Day:Interval=\"RES NV_1 TEMP SCHEDULE ALLDAY4\", Blank Schedule Type Limits Name input -- will not be validated.\n   ** Warning ** ProcessScheduleInput: Schedule:Day:Interval=\"RES NV_1 TEMP SCHEDULE ALLDAY5\", Blank Schedule Type Limits Name input -- will not be validated.\n   ** Warning ** ProcessScheduleInput: Schedule:Day:Interval=\"RES NV_1 TEMP SCHEDULE ALLDAY6\", Blank Schedule Type Limits Name input -- will not be validated.\n   ** Warning ** ProcessScheduleInput: Schedule:Day:Interval=\"RES NV_1 TEMP SCHEDULE ALLDAY7\", Blank Schedule Type Limits Name input -- will not be validated.\n   ** Warning ** ProcessScheduleInput: Schedule:Day:Interval=\"RES NV_1 TEMP SCHEDULE ALLDAY8\", Blank Schedule Type Limits Name input -- will not be validated.\n   ** Warning ** ProcessScheduleInput: Schedule:Day:Interval=\"RES NV_1 TEMP SCHEDULE ALLDAY9\", Blank Schedule Type Limits Name input -- will not be validated.\n   ** Warning ** ProcessScheduleInput: Schedule:Day:Interval=\"RESIDENTIAL CEILING FAN SCHEDULE ALLDAY1\", Blank Schedule Type Limits Name input -- will not be validated.\n   ** Warning ** ProcessScheduleInput: Schedule:Day:Interval=\"RESIDENTIAL CEILING FAN SCHEDULE ALLDAY10\", Blank Schedule Type Limits Name input -- will not be validated.\n   ** Warning ** ProcessScheduleInput: Schedule:Day:Interval=\"RESIDENTIAL CEILING FAN SCHEDULE ALLDAY11\", Blank Schedule Type Limits Name input -- will not be validated.\n   ** Warning ** ProcessScheduleInput: Schedule:Day:Interval=\"RESIDENTIAL CEILING FAN SCHEDULE ALLDAY12\", Blank Schedule Type Limits Name input -- will not be validated.\n   ** Warning ** ProcessScheduleInput: Schedule:Day:Interval=\"RESIDENTIAL CEILING FAN SCHEDULE ALLDAY2\", Blank Schedule Type Limits Name input -- will not be validated.\n   ** Warning ** ProcessScheduleInput: Schedule:Day:Interval=\"RESIDENTIAL CEILING FAN SCHEDULE ALLDAY3\", Blank Schedule Type Limits Name input -- will not be validated.\n   ** Warning ** ProcessScheduleInput: Schedule:Day:Interval=\"RESIDENTIAL CEILING FAN SCHEDULE ALLDAY4\", Blank Schedule Type Limits Name input -- will not be validated.\n   ** Warning ** ProcessScheduleInput: Schedule:Day:Interval=\"RESIDENTIAL CEILING FAN SCHEDULE ALLDAY5\", Blank Schedule Type Limits Name input -- will not be validated.\n   ** Warning ** ProcessScheduleInput: Schedule:Day:Interval=\"RESIDENTIAL CEILING FAN SCHEDULE ALLDAY6\", Blank Schedule Type Limits Name input -- will not be validated.\n   ** Warning ** ProcessScheduleInput: Schedule:Day:Interval=\"RESIDENTIAL CEILING FAN SCHEDULE ALLDAY7\", Blank Schedule Type Limits Name input -- will not be validated.\n   ** Warning ** ProcessScheduleInput: Schedule:Day:Interval=\"RESIDENTIAL CEILING FAN SCHEDULE ALLDAY8\", Blank Schedule Type Limits Name input -- will not be validated.\n   ** Warning ** ProcessScheduleInput: Schedule:Day:Interval=\"RESIDENTIAL CEILING FAN SCHEDULE ALLDAY9\", Blank Schedule Type Limits Name input -- will not be validated.\n   ** Warning ** ProcessScheduleInput: Schedule:Day:Interval=\"SCHEDULE DAY 2\", Blank Schedule Type Limits Name input -- will not be validated.\n   ** Warning ** ProcessScheduleInput: Schedule:Day:Interval=\"SCHEDULE DAY 5\", Blank Schedule Type Limits Name input -- will not be validated.\n   ** Warning ** ProcessScheduleInput: Schedule:Day:Interval=\"SCHEDULE DAY 60\", Blank Schedule Type Limits Name input -- will not be validated.\n   ** Warning ** ProcessScheduleInput: Schedule:Day:Interval=\"SCHEDULE DAY 61\", Blank Schedule Type Limits Name input -- will not be validated.\n   ** Warning ** ProcessScheduleInput: Schedule:Day:Interval=\"SCHEDULE DAY 64\", Blank Schedule Type Limits Name input -- will not be validated.\n   ** Warning ** ProcessScheduleInput: Schedule:Day:Interval=\"SCHEDULE DAY 65\", Blank Schedule Type Limits Name input -- will not be validated.\n   ** Warning ** ProcessScheduleInput: Schedule:Day:Interval=\"WINDOW SHADING SCHEDULE ALLDAY1\", Blank Schedule Type Limits Name input -- will not be validated.\n   ** Warning ** ProcessScheduleInput: Schedule:Day:Interval=\"WINDOW SHADING SCHEDULE ALLDAY10\", Blank Schedule Type Limits Name input -- will not be validated.\n   ** Warning ** ProcessScheduleInput: Schedule:Day:Interval=\"WINDOW SHADING SCHEDULE ALLDAY11\", Blank Schedule Type Limits Name input -- will not be validated.\n   ** Warning ** ProcessScheduleInput: Schedule:Day:Interval=\"WINDOW SHADING SCHEDULE ALLDAY12\", Blank Schedule Type Limits Name input -- will not be validated.\n   ** Warning ** ProcessScheduleInput: Schedule:Day:Interval=\"WINDOW SHADING SCHEDULE ALLDAY2\", Blank Schedule Type Limits Name input -- will not be validated.\n   ** Warning ** ProcessScheduleInput: Schedule:Day:Interval=\"WINDOW SHADING SCHEDULE ALLDAY3\", Blank Schedule Type Limits Name input -- will not be validated.\n   ** Warning ** ProcessScheduleInput: Schedule:Day:Interval=\"WINDOW SHADING SCHEDULE ALLDAY4\", Blank Schedule Type Limits Name input -- will not be validated.\n   ** Warning ** ProcessScheduleInput: Schedule:Day:Interval=\"WINDOW SHADING SCHEDULE ALLDAY5\", Blank Schedule Type Limits Name input -- will not be validated.\n   ** Warning ** ProcessScheduleInput: Schedule:Day:Interval=\"WINDOW SHADING SCHEDULE ALLDAY6\", Blank Schedule Type Limits Name input -- will not be validated.\n   ** Warning ** ProcessScheduleInput: Schedule:Day:Interval=\"WINDOW SHADING SCHEDULE ALLDAY7\", Blank Schedule Type Limits Name input -- will not be validated.\n   ** Warning ** ProcessScheduleInput: Schedule:Day:Interval=\"WINDOW SHADING SCHEDULE ALLDAY8\", Blank Schedule Type Limits Name input -- will not be validated.\n   ** Warning ** ProcessScheduleInput: Schedule:Day:Interval=\"WINDOW SHADING SCHEDULE ALLDAY9\", Blank Schedule Type Limits Name input -- will not be validated.\n   ** Warning ** ProcessScheduleInput: Schedule:Year=\"RES MV_1 BATH EXHAUST SCHEDULE\", Blank Schedule Type Limits Name input -- will not be validated.\n   ** Warning ** ProcessScheduleInput: Schedule:Year=\"RES MV_1 RANGE EXHAUST SCHEDULE\", Blank Schedule Type Limits Name input -- will not be validated.\n   ** Warning ** ProcessScheduleInput: Schedule:Year=\"RES NV_1 AVAIL SCHEDULE\", Blank Schedule Type Limits Name input -- will not be validated.\n   ** Warning ** ProcessScheduleInput: Schedule:Year=\"RES NV_1 TEMP SCHEDULE\", Blank Schedule Type Limits Name input -- will not be validated.\n   ** Warning ** ProcessScheduleInput: Schedule:Year=\"RESIDENTIAL CEILING FAN SCHEDULE\", Blank Schedule Type Limits Name input -- will not be validated.\n   ** Warning ** ProcessScheduleInput: Schedule:Year=\"WINDOW SHADING SCHEDULE\", Blank Schedule Type Limits Name input -- will not be validated.\n   ** Warning ** ProcessScheduleInput: Schedule:Constant=\"RESIDENTIAL BATH TEMPERATURE SCHEDULE\", Blank Schedule Type Limits Name input -- will not be validated.\n   ** Warning ** ProcessScheduleInput: Schedule:Constant=\"RESIDENTIAL CLOTHES WASHER TEMPERATURE SCHEDULE\", Blank Schedule Type Limits Name input -- will not be validated.\n   ** Warning ** ProcessScheduleInput: Schedule:Constant=\"RESIDENTIAL DISHWASHER TEMPERATURE SCHEDULE\", Blank Schedule Type Limits Name input -- will not be validated.\n   ** Warning ** ProcessScheduleInput: Schedule:Constant=\"RESIDENTIAL SHOWER TEMPERATURE SCHEDULE\", Blank Schedule Type Limits Name input -- will not be validated.\n   ** Warning ** ProcessScheduleInput: Schedule:Constant=\"RESIDENTIAL SINK TEMPERATURE SCHEDULE\", Blank Schedule Type Limits Name input -- will not be validated.\n   ** Warning ** ProcessScheduleInput: Schedule:Constant=\"ALWAYS ON CONTINUOUS\", Blank Schedule Type Limits Name input -- will not be validated.\n   ** Warning ** Foundation:Kiva=\"FOUNDATION KIVA 1\", no Interior Horizontal Insulation Material Name defined\n   **   ~~~   ** Interior Horizontal Insulation Depth will not be used.\n   ** Warning ** Foundation:Kiva=\"FOUNDATION KIVA 1\", no Exterior Horizontal Insulation Material Name defined\n   **   ~~~   ** Exterior Horizontal Insulation Width will not be used.\n   ** Warning ** Foundation:Kiva=\"FOUNDATION KIVA 1\", no Footing Material Name defined\n   **   ~~~   ** Footing Depth will not be used.\n   ** Warning ** Foundation:Kiva=\"FOUNDATION KIVA 2\", no Interior Horizontal Insulation Material Name defined\n   **   ~~~   ** Interior Horizontal Insulation Depth will not be used.\n   ** Warning ** Foundation:Kiva=\"FOUNDATION KIVA 2\", no Exterior Horizontal Insulation Material Name defined\n   **   ~~~   ** Exterior Horizontal Insulation Width will not be used.\n   ** Warning ** Foundation:Kiva=\"FOUNDATION KIVA 2\", no Footing Material Name defined\n   **   ~~~   ** Footing Depth will not be used.\n   ** Warning ** SurfaceProperty:ExposedFoundationPerimeter: SURFACE 1, TOTALEXPOSEDPERIMETER set as calculation method, but a value has been set for Exposed Perimeter Fraction. This value will be ignored.\n   ** Warning ** SurfaceProperty:ExposedFoundationPerimeter: SURFACE 7, TOTALEXPOSEDPERIMETER set as calculation method, but a value has been set for Exposed Perimeter Fraction. This value will be ignored.\n   ** Warning ** CheckUsedConstructions: There are 1 nominally unused constructions in input.\n   **   ~~~   ** For explicit details on each unused construction, use Output:Diagnostics,DisplayExtraWarnings;\n   ************* Beginning Plant Sizing Calculations\n   ** Warning ** GetElectricEIRChillerInput: Chiller:Electric:EIR=\"90.1-2013    CHILLER 0\"\n   **   ~~~   ** Adding OutdoorAir:Node=90.1-2013    CHILLER 0 INLET NODE FOR CONDENSER\n   ** Warning ** Check input. Pump nominal power or motor efficiency is set to 0, for pump=PUMP VARIABLE SPEED 1\n   ** Warning ** Missing temperature setpoint for LeavingSetpointModulated mode Boiler named BOILER\n   **   ~~~   **   A temperature setpoint is needed at the outlet node of a boiler in variable flow mode\n   **   ~~~   **   use a Setpoint Manager to establish a setpoint at the boiler outlet node \n   **   ~~~   **   or use an EMS actuator to establish a setpoint at the boiler outlet node \n   **   ~~~   **   The overall loop setpoint will be assumed for Boiler. The simulation continues ... \n   ** Warning ** Output:Meter: invalid Key Name=\"HEATING:DISTRICTCOOLING\" - not found.\n   ** Warning ** Output:Meter: invalid Key Name=\"HEATING:DISTRICTHEATING\" - not found.\n   ** Warning ** Output:Meter: invalid Key Name=\"HEATING:WATER\" - not found.\n   ** Warning ** Output:Meter: invalid Key Name=\"HEATING:FUELOIL#1\" - not found.\n   ** Warning ** Output:Meter: invalid Key Name=\"HEATING:PROPANE\" - not found.\n   ** Warning ** Output:Meter: invalid Key Name=\"HEATING:ELECTRICITYPRODUCED\" - not found.\n   ** Warning ** Output:Meter: invalid Key Name=\"COOLING:GAS\" - not found.\n   ** Warning ** Output:Meter: invalid Key Name=\"COOLING:DISTRICTCOOLING\" - not found.\n   ** Warning ** Output:Meter: invalid Key Name=\"COOLING:DISTRICTHEATING\" - not found.\n   ** Warning ** Output:Meter: invalid Key Name=\"COOLING:WATER\" - not found.\n   ** Warning ** Output:Meter: invalid Key Name=\"COOLING:FUELOIL#1\" - not found.\n   ** Warning ** Output:Meter: invalid Key Name=\"COOLING:PROPANE\" - not found.\n   ** Warning ** Output:Meter: invalid Key Name=\"COOLING:ELECTRICITYPRODUCED\" - not found.\n   ** Warning ** Output:Meter: invalid Key Name=\"INTERIORLIGHTS:GAS\" - not found.\n   ** Warning ** Output:Meter: invalid Key Name=\"INTERIORLIGHTS:DISTRICTCOOLING\" - not found.\n   ** Warning ** Output:Meter: invalid Key Name=\"INTERIORLIGHTS:DISTRICTHEATING\" - not found.\n   ** Warning ** Output:Meter: invalid Key Name=\"INTERIORLIGHTS:WATER\" - not found.\n   ** Warning ** Output:Meter: invalid Key Name=\"INTERIORLIGHTS:FUELOIL#1\" - not found.\n   ** Warning ** Output:Meter: invalid Key Name=\"INTERIORLIGHTS:PROPANE\" - not found.\n   ** Warning ** Output:Meter: invalid Key Name=\"INTERIORLIGHTS:ELECTRICITYPRODUCED\" - not found.\n   ** Warning ** Output:Meter: invalid Key Name=\"EXTERIORLIGHTS:GAS\" - not found.\n   ** Warning ** Output:Meter: invalid Key Name=\"EXTERIORLIGHTS:DISTRICTCOOLING\" - not found.\n   ** Warning ** Output:Meter: invalid Key Name=\"EXTERIORLIGHTS:DISTRICTHEATING\" - not found.\n   ** Warning ** Output:Meter: invalid Key Name=\"EXTERIORLIGHTS:WATER\" - not found.\n   ** Warning ** Output:Meter: invalid Key Name=\"EXTERIORLIGHTS:FUELOIL#1\" - not found.\n   ** Warning ** Output:Meter: invalid Key Name=\"EXTERIORLIGHTS:PROPANE\" - not found.\n   ** Warning ** Output:Meter: invalid Key Name=\"EXTERIORLIGHTS:ELECTRICITYPRODUCED\" - not found.\n   ** Warning ** Output:Meter: invalid Key Name=\"INTERIOREQUIPMENT:DISTRICTCOOLING\" - not found.\n   ** Warning ** Output:Meter: invalid Key Name=\"INTERIOREQUIPMENT:DISTRICTHEATING\" - not found.\n   ** Warning ** Output:Meter: invalid Key Name=\"INTERIOREQUIPMENT:WATER\" - not found.\n   ** Warning ** Output:Meter: invalid Key Name=\"INTERIOREQUIPMENT:FUELOIL#1\" - not found.\n   ** Warning ** Output:Meter: invalid Key Name=\"INTERIOREQUIPMENT:PROPANE\" - not found.\n   ** Warning ** Output:Meter: invalid Key Name=\"INTERIOREQUIPMENT:ELECTRICITYPRODUCED\" - not found.\n   ** Warning ** Output:Meter: invalid Key Name=\"EXTERIOREQUIPMENT:ELECTRICITY\" - not found.\n   ** Warning ** Output:Meter: invalid Key Name=\"EXTERIOREQUIPMENT:GAS\" - not found.\n   ** Warning ** Output:Meter: invalid Key Name=\"EXTERIOREQUIPMENT:DISTRICTCOOLING\" - not found.\n   ** Warning ** Output:Meter: invalid Key Name=\"EXTERIOREQUIPMENT:DISTRICTHEATING\" - not found.\n   ** Warning ** Output:Meter: invalid Key Name=\"EXTERIOREQUIPMENT:WATER\" - not found.\n   ** Warning ** Output:Meter: invalid Key Name=\"EXTERIOREQUIPMENT:FUELOIL#1\" - not found.\n   ** Warning ** Output:Meter: invalid Key Name=\"EXTERIOREQUIPMENT:PROPANE\" - not found.\n   ** Warning ** Output:Meter: invalid Key Name=\"EXTERIOREQUIPMENT:ELECTRICITYPRODUCED\" - not found.\n   ** Warning ** Output:Meter: invalid Key Name=\"FANS:GAS\" - not found.\n   ** Warning ** Output:Meter: invalid Key Name=\"FANS:DISTRICTCOOLING\" - not found.\n   ** Warning ** Output:Meter: invalid Key Name=\"FANS:DISTRICTHEATING\" - not found.\n   ** Warning ** Output:Meter: invalid Key Name=\"FANS:WATER\" - not found.\n   ** Warning ** Output:Meter: invalid Key Name=\"FANS:FUELOIL#1\" - not found.\n   ** Warning ** Output:Meter: invalid Key Name=\"FANS:PROPANE\" - not found.\n   ** Warning ** Output:Meter: invalid Key Name=\"FANS:ELECTRICITYPRODUCED\" - not found.\n   ** Warning ** Output:Meter: invalid Key Name=\"PUMPS:GAS\" - not found.\n   ** Warning ** Output:Meter: invalid Key Name=\"PUMPS:DISTRICTCOOLING\" - not found.\n   ** Warning ** Output:Meter: invalid Key Name=\"PUMPS:DISTRICTHEATING\" - not found.\n   ** Warning ** Output:Meter: invalid Key Name=\"PUMPS:WATER\" - not found.\n   ** Warning ** Output:Meter: invalid Key Name=\"PUMPS:FUELOIL#1\" - not found.\n   ** Warning ** Output:Meter: invalid Key Name=\"PUMPS:PROPANE\" - not found.\n   ** Warning ** Output:Meter: invalid Key Name=\"PUMPS:ELECTRICITYPRODUCED\" - not found.\n   ** Warning ** Output:Meter: invalid Key Name=\"HEATREJECTION:ELECTRICITY\" - not found.\n   ** Warning ** Output:Meter: invalid Key Name=\"HEATREJECTION:GAS\" - not found.\n   ** Warning ** Output:Meter: invalid Key Name=\"HEATREJECTION:DISTRICTCOOLING\" - not found.\n   ** Warning ** Output:Meter: invalid Key Name=\"HEATREJECTION:DISTRICTHEATING\" - not found.\n   ** Warning ** Output:Meter: invalid Key Name=\"HEATREJECTION:WATER\" - not found.\n   ** Warning ** Output:Meter: invalid Key Name=\"HEATREJECTION:FUELOIL#1\" - not found.\n   ** Warning ** Output:Meter: invalid Key Name=\"HEATREJECTION:PROPANE\" - not found.\n   ** Warning ** Output:Meter: invalid Key Name=\"HEATREJECTION:ELECTRICITYPRODUCED\" - not found.\n   ** Warning ** Output:Meter: invalid Key Name=\"HUMIDIFIER:ELECTRICITY\" - not found.\n   ** Warning ** Output:Meter: invalid Key Name=\"HUMIDIFIER:GAS\" - not found.\n   ** Warning ** Output:Meter: invalid Key Name=\"HUMIDIFIER:DISTRICTCOOLING\" - not found.\n   ** Warning ** Output:Meter: invalid Key Name=\"HUMIDIFIER:DISTRICTHEATING\" - not found.\n   ** Warning ** Output:Meter: invalid Key Name=\"HUMIDIFIER:WATER\" - not found.\n   ** Warning ** Output:Meter: invalid Key Name=\"HUMIDIFIER:FUELOIL#1\" - not found.\n   ** Warning ** Output:Meter: invalid Key Name=\"HUMIDIFIER:PROPANE\" - not found.\n   ** Warning ** Output:Meter: invalid Key Name=\"HUMIDIFIER:ELECTRICITYPRODUCED\" - not found.\n   ** Warning ** Output:Meter: invalid Key Name=\"HEATRECOVERY:ELECTRICITY\" - not found.\n   ** Warning ** Output:Meter: invalid Key Name=\"HEATRECOVERY:GAS\" - not found.\n   ** Warning ** Output:Meter: invalid Key Name=\"HEATRECOVERY:DISTRICTCOOLING\" - not found.\n   ** Warning ** Output:Meter: invalid Key Name=\"HEATRECOVERY:DISTRICTHEATING\" - not found.\n   ** Warning ** Output:Meter: invalid Key Name=\"HEATRECOVERY:WATER\" - not found.\n   ** Warning ** Output:Meter: invalid Key Name=\"HEATRECOVERY:FUELOIL#1\" - not found.\n   ** Warning ** Output:Meter: invalid Key Name=\"HEATRECOVERY:PROPANE\" - not found.\n   ** Warning ** Output:Meter: invalid Key Name=\"HEATRECOVERY:ELECTRICITYPRODUCED\" - not found.\n   ** Warning ** Output:Meter: invalid Key Name=\"WATERSYSTEMS:DISTRICTCOOLING\" - not found.\n   ** Warning ** Output:Meter: invalid Key Name=\"WATERSYSTEMS:DISTRICTHEATING\" - not found.\n   ** Warning ** Output:Meter: invalid Key Name=\"WATERSYSTEMS:FUELOIL#1\" - not found.\n   ** Warning ** Output:Meter: invalid Key Name=\"WATERSYSTEMS:PROPANE\" - not found.\n   ** Warning ** Output:Meter: invalid Key Name=\"WATERSYSTEMS:ELECTRICITYPRODUCED\" - not found.\n   ** Warning ** Output:Meter: invalid Key Name=\"REFRIGERATION:ELECTRICITY\" - not found.\n   ** Warning ** Output:Meter: invalid Key Name=\"REFRIGERATION:GAS\" - not found.\n   ** Warning ** Output:Meter: invalid Key Name=\"REFRIGERATION:DISTRICTCOOLING\" - not found.\n   ** Warning ** Output:Meter: invalid Key Name=\"REFRIGERATION:DISTRICTHEATING\" - not found.\n   ** Warning ** Output:Meter: invalid Key Name=\"REFRIGERATION:WATER\" - not found.\n   ** Warning ** Output:Meter: invalid Key Name=\"REFRIGERATION:FUELOIL#1\" - not found.\n   ** Warning ** Output:Meter: invalid Key Name=\"REFRIGERATION:PROPANE\" - not found.\n   ** Warning ** Output:Meter: invalid Key Name=\"REFRIGERATION:ELECTRICITYPRODUCED\" - not found.\n   ** Warning ** Output:Meter: invalid Key Name=\"DISTRICTCOOLING:FACILITY\" - not found.\n   ** Warning ** Output:Meter: invalid Key Name=\"DISTRICTHEATING:FACILITY\" - not found.\n   ** Warning ** Output:Meter: invalid Key Name=\"FUELOIL#1:FACILITY\" - not found.\n   ** Warning ** Output:Meter: invalid Key Name=\"PROPANE:FACILITY\" - not found.\n   ** Warning ** Output:Meter: invalid Key Name=\"ELECTRICITYPRODUCED:FACILITY\" - not found.\n   ** Warning ** Output:Meter: invalid Key Name=\"DISTRICTCOOLING:FACILITY\" - not found.\n   ** Warning ** Output:Meter: invalid Key Name=\"DISTRICTHEATING:FACILITY\" - not found.\n   ** Warning ** Output:Meter:MeterFileOnly requested for \"Electricity:Facility\" (TimeStep), already on \"Output:Meter\". Will report to both eplusout.eso and eplusout.mtr\n   ************* Testing Individual Branch Integrity\n   ************* All Branches passed integrity testing\n   ************* Testing Individual Supply Air Path Integrity\n   ************* All Supply Air Paths passed integrity testing\n   ************* Testing Individual Return Air Path Integrity\n   ************* All Return Air Paths passed integrity testing\n   ************* No node connection errors were found.\n   ************* Beginning Simulation\n   ** Warning ** GetSpecificHeatGlycol: Temperature is out of range (too high) for fluid [WATER] specific heat **\n   **   ~~~   ** ..Called From:CalcSimpleHeatingCoil,Temperature=[155.62], supplied data range=[0.00,125.00]\n   **   ~~~   **  Environment=ANN HTG 99% CONDNS DB, at Simulation time=01/21 00:00 - 00:10\n   ** Warning ** GetDensityGlycol: Temperature is out of range (too high) for fluid [WATER] density **\n   **   ~~~   ** ..Called From:PlantPumps:CalcPumps: ,Temperature=[155.67], supplied data range=[0.00,100.00]\n   **   ~~~   **  Environment=ANN HTG 99% CONDNS DB, at Simulation time=01/21 00:00 - 00:10\n   ** Warning ** The resource referenced by LifeCycleCost:UsePriceEscalation= \"U.S. AVG  COMMERCIAL-ELECTRICITY\" has no energy cost. \n   **   ~~~   ** ... It is likely that the wrong resource is used. The resource should match the meter used in Utility:Tariff.\n   ** Warning ** The resource referenced by LifeCycleCost:UsePriceEscalation= \"U.S. AVG  COMMERCIAL-DISTILLATE OIL\" has no energy cost. \n   **   ~~~   ** ... It is likely that the wrong resource is used. The resource should match the meter used in Utility:Tariff.\n   ** Warning ** The resource referenced by LifeCycleCost:UsePriceEscalation= \"U.S. AVG  COMMERCIAL-RESIDUAL OIL\" has no energy cost. \n   **   ~~~   ** ... It is likely that the wrong resource is used. The resource should match the meter used in Utility:Tariff.\n   ** Warning ** The resource referenced by LifeCycleCost:UsePriceEscalation= \"U.S. AVG  COMMERCIAL-NATURAL GAS\" has no energy cost. \n   **   ~~~   ** ... It is likely that the wrong resource is used. The resource should match the meter used in Utility:Tariff.\n   ** Warning ** The resource referenced by LifeCycleCost:UsePriceEscalation= \"U.S. AVG  COMMERCIAL-COAL\" has no energy cost. \n   **   ~~~   ** ... It is likely that the wrong resource is used. The resource should match the meter used in Utility:Tariff.\n   ************* Simulation Error Summary *************\n   ** Warning ** The following Report Variables were requested but not generated -- check.rdd file\n   **   ~~~   ** Either the IDF did not contain these elements, the variable name is misspelled,\n   **   ~~~   ** or the requested variable is an advanced output which requires Output : Diagnostics, DisplayAdvancedReportVariables;\n   ************* Key=*, VarName=\"\", Frequency=Hourly\n   ************* There are 2 unused schedules in input.\n   ************* There are 2 unused week schedules in input.\n   ************* There are 2 unused day schedules in input.\n   ************* Use Output:Diagnostics,DisplayUnusedSchedules; to see them.\n   *************\n   ************* ===== Recurring Error Summary =====\n   ************* The following recurring error messages occurred.\n   *************\n   *************  ** Warning ** Plant loop exceeding upper temperature limit, PlantLoop=\"HOT WATER LOOP\"\n   *************  **   ~~~   **   This error occurred 1481 total times;\n   *************  **   ~~~   **   during Warmup 1193 times;\n   *************  **   ~~~   **   during Sizing 0 times.\n   *************  **   ~~~   **   Max=167.842931\n   *************\n   *************  ** Warning ** GetSpecificHeatGlycol: Temperature out of range (too high) for fluid [WATER] specific heat **\n   *************  **   ~~~   **   This error occurred 16128 total times;\n   *************  **   ~~~   **   during Warmup 0 times;\n   *************  **   ~~~   **   during Sizing 0 times.\n   *************  **   ~~~   **   Max=167.842931 {C}  Min=155.62362 {C}\n   *************\n   *************  ** Warning ** GetDensityGlycol: Temperature out of range (too high) for fluid [WATER] density **\n   *************  **   ~~~   **   This error occurred 6336 total times;\n   *************  **   ~~~   **   during Warmup 0 times;\n   *************  **   ~~~   **   during Sizing 0 times.\n   *************  **   ~~~   **   Max=167.842931 {C}  Min=155.670548 {C}\n   *************\n   *************\n   ************* ===== Final Error Summary =====\n   ************* The following error categories occurred.  Consider correcting or noting.\n   ************* Nominally Unused Constructions\n   ************* ..The nominally unused constructions warning is provided to alert you to potential conditions that can cause\n   ************* ..extra time during simulation. Each construction is calculated by the algorithm indicated in the HeatBalanceAlgorithm\n   ************* ..object. You may remove the constructions indicated (when you use the DisplayExtraWarnings option).\n   *************\n   ************* EnergyPlus Warmup Error Summary. During Warmup: 0 Warning; 0 Severe Errors.\n   ************* EnergyPlus Sizing Error Summary. During Sizing: 103 Warning; 0 Severe Errors.\n   ************* EnergyPlus Completed Successfully-- 24157 Warning; 0 Severe Errors; Elapsed Time=00hr 00min 36.35sec\n",
  "file_format_version": "0.0.1",
  "file_paths": [
    "../weather",
    "../seeds",
    "../seed"
  ],
  "hash": "A79AD20A",
  "measure_paths": [
    "../measures"
  ],
  "name": "diag Autogenerated 6",
  "osa_id": "5b8bf959-6b87-4318-911c-88038d7f0940",
  "osd_id": "948c80e3-d275-4547-b611-7bc3a563db9f",
  "run_directory": "./run",
  "seed_file": "EmptySeedModel.osm",
  "started_at": "20190208T214833Z",
  "steps": [
    {
      "arguments": {
        "begin_day_of_month": 1,
        "begin_month": 1,
        "end_day_of_month": 31,
        "end_month": 12,
        "timesteps_per_hr": 6
      },
      "description": "Set the simulation timesteps per hour and the run period begin/end month/day.",
      "measure_dir_name": "ResidentialSimulationControls",
      "name": "residential_simulation_controls",
      "result": {
        "completed_at": "20190208T214833Z",
        "measure_class_name": "ResidentialSimulationControls",
        "measure_display_name": "Set Residential Simulation Controls",
        "measure_name": "residential_simulation_controls",
        "measure_taxonomy": "Whole Building.Space Types",
        "measure_type": "ModelMeasure",
        "measure_uid": "874f921e-8f3c-458a-a82f-01b7d51a547e",
        "measure_version_id": "86e97b5c-f418-4b1d-9ff2-2beebafb8697",
        "measure_version_modified": "20190104T215853Z",
        "measure_xml_checksum": "2C38F48B",
        "started_at": "20190208T214833Z",
        "stderr": "",
        "stdout": "",
        "step_errors": [],
        "step_files": [],
        "step_info": [
          "Set the simulation timesteps per hour to 6.",
          "Set the run period begin and end month/day to 1/1 and 12/31, respectively."
        ],
        "step_result": "Success",
        "step_values": [
          {
            "name": "timesteps_per_hr",
            "value": 6
          },
          {
            "name": "begin_month",
            "value": 1
          },
          {
            "name": "begin_day_of_month",
            "value": 1
          },
          {
            "name": "end_month",
            "value": 12
          },
          {
            "name": "end_day_of_month",
            "value": 31
          }
        ],
        "step_warnings": []
      }
    },
    {
      "arguments": {
        "building_id": 6,
        "number_of_buildings_represented": 80000000,
        "sample_weight": 0,
        "workflow_json": "measure-info.json"
      },
      "description": "Builds the OpenStudio Model for an existing building.",
      "measure_dir_name": "BuildExistingModel",
      "name": "build_existing_model",
      "result": {
        "completed_at": "20190208T214859Z",
        "measure_class_name": "BuildExistingModel",
        "measure_display_name": "Build Existing Model",
        "measure_name": "build_existing_model",
        "measure_taxonomy": "Whole Building.Space Types",
        "measure_type": "ModelMeasure",
        "measure_uid": "dedf59bb-3b88-4f16-8755-2c1ff5519cbf",
        "measure_version_id": "750910c3-9b79-49df-a43d-6f44cc535f7c",
        "measure_version_modified": "20181031T230857Z",
        "measure_xml_checksum": "2C38F48B",
        "started_at": "20190208T214833Z",
        "stderr": "",
        "stdout": "[OpenStudio.Measure] <0> OSArgumentVector is deprecated, use OpenStudio::Measure::OSArgumentVector instead.\n[openstudio.measure.OSRunner] <1> Cannot find current Workflow Step\n[openstudio.EpwFile] <0> Successive data points (1977-Jan-31 to 1978-Feb-01, ending on line 753) are greater than 1 day apart in EPW file '/mnt/openstudio/analysis_5b8bf959-6b87-4318-911c-88038d7f0940/weather/USA_CA_Los.Angeles.Intl.AP.722950_TMY3.epw'. Data will be treated as typical (TMY)\n[openstudio.EpwFile] <0> Successive data points (1977-Jan-31 to 1978-Feb-01, ending on line 753) are greater than 1 day apart in EPW file '/mnt/openstudio/analysis_5b8bf959-6b87-4318-911c-88038d7f0940/weather/USA_CA_Los.Angeles.Intl.AP.722950_TMY3.epw'. Data will be treated as typical (TMY)\n[openstudio.WorkflowStepResult] <-2> WorkflowStepResult::initialCondition is deprecated, use stepInitialCondition instead\n[openstudio.WorkflowStepResult] <-2> WorkflowStepResult::finalCondition is deprecated, use stepFinalCondition instead\n[openstudio.WorkflowStepResult] <-2> WorkflowStepResult::finalCondition is deprecated, use stepFinalCondition instead\n[openstudio.WorkflowStepResult] <-2> WorkflowStepResult::warnings is deprecated, use stepWarnings instead\n[openstudio.WorkflowStepResult] <-2> WorkflowStepResult::info is deprecated, use stepInfo instead\n[openstudio.WorkflowStepResult] <-2> WorkflowStepResult::errors is deprecated, use stepErrors instead\n[openstudio.WorkflowStepResult] <-2> WorkflowStepResult::errors is deprecated, use stepErrors instead\n[openstudio.WorkflowStepResult] <-2> WorkflowStepResult::value is deprecated, use stepResult instead\n[openstudio.WorkflowStepResult] <0> WorkflowStepResult value called with undefined stepResult, returning 'Success'\n[openstudio.measure.OSRunner] <1> Cannot find current Workflow Step\n[openstudio.model.PlanarSurface] <-2> Before setVertices have 11 fields.\n[openstudio.model.PlanarSurface] <-2> After clearExtensibleGroups in setVertices have 11 fields.\n[openstudio.model.PlanarSurface] <-2> After setVertices have 23 fields.  Size of vertices is 4.\n[openstudio.model.PlanarSurface] <-2> Before setVertices have 11 fields.\n[openstudio.model.PlanarSurface] <-2> After clearExtensibleGroups in setVertices have 11 fields.\n[openstudio.model.PlanarSurface] <-2> After setVertices have 23 fields.  Size of vertices is 4.\n[openstudio.model.PlanarSurface] <-2> Before setVertices have 11 fields.\n[openstudio.model.PlanarSurface] <-2> After clearExtensibleGroups in setVertices have 11 fields.\n[openstudio.model.PlanarSurface] <-2> After setVertices have 23 fields.  Size of vertices is 4.\n[openstudio.model.PlanarSurface] <-2> Before setVertices have 11 fields.\n[openstudio.model.PlanarSurface] <-2> After clearExtensibleGroups in setVertices have 11 fields.\n[openstudio.model.PlanarSurface] <-2> After setVertices have 23 fields.  Size of vertices is 4.\n[openstudio.model.PlanarSurface] <-2> Before setVertices have 11 fields.\n[openstudio.model.PlanarSurface] <-2> After clearExtensibleGroups in setVertices have 11 fields.\n[openstudio.model.PlanarSurface] <-2> After setVertices have 23 fields.  Size of vertices is 4.\n[openstudio.model.PlanarSurface] <-2> Before setVertices have 11 fields.\n[openstudio.model.PlanarSurface] <-2> After clearExtensibleGroups in setVertices have 11 fields.\n[openstudio.model.PlanarSurface] <-2> After setVertices have 23 fields.  Size of vertices is 4.\n[openstudio.model.PlanarSurface] <-2> Before setVertices have 11 fields.\n[openstudio.model.PlanarSurface] <-2> After clearExtensibleGroups in setVertices have 11 fields.\n[openstudio.model.PlanarSurface] <-2> After setVertices have 23 fields.  Size of vertices is 4.\n[openstudio.model.PlanarSurface] <-2> Before setVertices have 11 fields.\n[openstudio.model.PlanarSurface] <-2> After clearExtensibleGroups in setVertices have 11 fields.\n[openstudio.model.PlanarSurface] <-2> After setVertices have 23 fields.  Size of vertices is 4.\n[openstudio.model.PlanarSurface] <-2> Before setVertices have 11 fields.\n[openstudio.model.PlanarSurface] <-2> After clearExtensibleGroups in setVertices have 11 fields.\n[openstudio.model.PlanarSurface] <-2> After setVertices have 23 fields.  Size of vertices is 4.\n[openstudio.model.PlanarSurface] <-2> Before setVertices have 11 fields.\n[openstudio.model.PlanarSurface] <-2> After clearExtensibleGroups in setVertices have 11 fields.\n[openstudio.model.PlanarSurface] <-2> After setVertices have 23 fields.  Size of vertices is 4.\n[openstudio.model.PlanarSurface] <-2> Before setVertices have 11 fields.\n[openstudio.model.PlanarSurface] <-2> After clearExtensibleGroups in setVertices have 11 fields.\n[openstudio.model.PlanarSurface] <-2> After setVertices have 23 fields.  Size of vertices is 4.\n[openstudio.model.PlanarSurface] <-2> Before setVertices have 11 fields.\n[openstudio.model.PlanarSurface] <-2> After clearExtensibleGroups in setVertices have 11 fields.\n[openstudio.model.PlanarSurface] <-2> After setVertices have 23 fields.  Size of vertices is 4.\n[openstudio.model.Surface] <-1> Intersection of 'Surface 11' with 'Surface 3' results in (Surface 11), (Surface 3), [], []\n[utilities.idf.Workspace] <-1> Renamed Object of type 'OS:Schedule:Day' and named 'Schedule Day 1' to 'Schedule Day 4' to avoid a name conflict upon WorkspaceObject addition.\n[utilities.idf.Workspace] <-1> Renamed Object of type 'OS:Schedule:Day' and named 'Schedule Day 2' to 'Schedule Day 4' to avoid a name conflict upon WorkspaceObject addition.\n[openstudio.model.PlanarSurface] <-2> Before setVertices have 23 fields.\n[openstudio.model.PlanarSurface] <-2> After clearExtensibleGroups in setVertices have 11 fields.\n[openstudio.model.PlanarSurface] <-2> After setVertices have 23 fields.  Size of vertices is 4.\n[openstudio.model.PlanarSurface] <-2> Before setVertices have 6 fields.\n[openstudio.model.PlanarSurface] <-2> After clearExtensibleGroups in setVertices have 6 fields.\n[openstudio.model.PlanarSurface] <-2> After setVertices have 18 fields.  Size of vertices is 4.\n[openstudio.model.PlanarSurface] <-2> Before setVertices have 6 fields.\n[openstudio.model.PlanarSurface] <-2> After clearExtensibleGroups in setVertices have 6 fields.\n[openstudio.model.PlanarSurface] <-2> After setVertices have 18 fields.  Size of vertices is 4.\n[openstudio.model.PlanarSurface] <-2> Before setVertices have 6 fields.\n[openstudio.model.PlanarSurface] <-2> After clearExtensibleGroups in setVertices have 6 fields.\n[openstudio.model.PlanarSurface] <-2> After setVertices have 18 fields.  Size of vertices is 4.\n[openstudio.model.PlanarSurface] <-2> Before setVertices have 6 fields.\n[openstudio.model.PlanarSurface] <-2> After clearExtensibleGroups in setVertices have 6 fields.\n[openstudio.model.PlanarSurface] <-2> After setVertices have 18 fields.  Size of vertices is 4.\n[openstudio.model.PlanarSurface] <-2> Before setVertices have 6 fields.\n[openstudio.model.PlanarSurface] <-2> After clearExtensibleGroups in setVertices have 6 fields.\n[openstudio.model.PlanarSurface] <-2> After setVertices have 18 fields.  Size of vertices is 4.\n[openstudio.model.PlanarSurface] <-2> Before setVertices have 6 fields.\n[openstudio.model.PlanarSurface] <-2> After clearExtensibleGroups in setVertices have 6 fields.\n[openstudio.model.PlanarSurface] <-2> After setVertices have 18 fields.  Size of vertices is 4.\n[openstudio.WorkflowStepResult] <-2> WorkflowStepResult::initialCondition is deprecated, use stepInitialCondition instead\n[openstudio.WorkflowStepResult] <-2> WorkflowStepResult::initialCondition is deprecated, use stepInitialCondition instead\n[openstudio.WorkflowStepResult] <-2> WorkflowStepResult::finalCondition is deprecated, use stepFinalCondition instead\n[openstudio.WorkflowStepResult] <-2> WorkflowStepResult::finalCondition is deprecated, use stepFinalCondition instead\n[openstudio.WorkflowStepResult] <-2> WorkflowStepResult::warnings is deprecated, use stepWarnings instead\n[openstudio.WorkflowStepResult] <-2> WorkflowStepResult::info is deprecated, use stepInfo instead\n[openstudio.WorkflowStepResult] <-2> WorkflowStepResult::errors is deprecated, use stepErrors instead\n[openstudio.WorkflowStepResult] <-2> WorkflowStepResult::errors is deprecated, use stepErrors instead\n[openstudio.WorkflowStepResult] <-2> WorkflowStepResult::value is deprecated, use stepResult instead\n[openstudio.WorkflowStepResult] <0> WorkflowStepResult value called with undefined stepResult, returning 'Success'\n[openstudio.measure.OSRunner] <1> Cannot find current Workflow Step\n[openstudio.WorkflowStepResult] <-2> WorkflowStepResult::initialCondition is deprecated, use stepInitialCondition instead\n[openstudio.WorkflowStepResult] <-2> WorkflowStepResult::finalCondition is deprecated, use stepFinalCondition instead\n[openstudio.WorkflowStepResult] <-2> WorkflowStepResult::finalCondition is deprecated, use stepFinalCondition instead\n[openstudio.WorkflowStepResult] <-2> WorkflowStepResult::warnings is deprecated, use stepWarnings instead\n[openstudio.WorkflowStepResult] <-2> WorkflowStepResult::info is deprecated, use stepInfo instead\n[openstudio.WorkflowStepResult] <-2> WorkflowStepResult::errors is deprecated, use stepErrors instead\n[openstudio.WorkflowStepResult] <-2> WorkflowStepResult::errors is deprecated, use stepErrors instead\n[openstudio.WorkflowStepResult] <-2> WorkflowStepResult::value is deprecated, use stepResult instead\n[openstudio.WorkflowStepResult] <0> WorkflowStepResult value called with undefined stepResult, returning 'Success'\n[openstudio.measure.OSRunner] <1> Cannot find current Workflow Step\n[openstudio.model.PlanarSurface] <-2> Before setVertices have 11 fields.\n[openstudio.model.PlanarSurface] <-2> After clearExtensibleGroups in setVertices have 11 fields.\n[openstudio.model.PlanarSurface] <-2> After setVertices have 23 fields.  Size of vertices is 4.\n[openstudio.model.PlanarSurface] <-2> Before setVertices have 11 fields.\n[openstudio.model.PlanarSurface] <-2> After clearExtensibleGroups in setVertices have 11 fields.\n[openstudio.model.PlanarSurface] <-2> After setVertices have 23 fields.  Size of vertices is 4.\n[openstudio.WorkflowStepResult] <-2> WorkflowStepResult::initialCondition is deprecated, use stepInitialCondition instead\n[openstudio.WorkflowStepResult] <-2> WorkflowStepResult::finalCondition is deprecated, use stepFinalCondition instead\n[openstudio.WorkflowStepResult] <-2> WorkflowStepResult::finalCondition is deprecated, use stepFinalCondition instead\n[openstudio.WorkflowStepResult] <-2> WorkflowStepResult::warnings is deprecated, use stepWarnings instead\n[openstudio.WorkflowStepResult] <-2> WorkflowStepResult::info is deprecated, use stepInfo instead\n[openstudio.WorkflowStepResult] <-2> WorkflowStepResult::errors is deprecated, use stepErrors instead\n[openstudio.WorkflowStepResult] <-2> WorkflowStepResult::errors is deprecated, use stepErrors instead\n[openstudio.WorkflowStepResult] <-2> WorkflowStepResult::value is deprecated, use stepResult instead\n[openstudio.WorkflowStepResult] <0> WorkflowStepResult value called with undefined stepResult, returning 'Success'\n[openstudio.measure.OSRunner] <1> Cannot find current Workflow Step\n[openstudio.WorkflowStepResult] <-2> WorkflowStepResult::initialCondition is deprecated, use stepInitialCondition instead\n[openstudio.WorkflowStepResult] <-2> WorkflowStepResult::finalCondition is deprecated, use stepFinalCondition instead\n[openstudio.WorkflowStepResult] <-2> WorkflowStepResult::warnings is deprecated, use stepWarnings instead\n[openstudio.WorkflowStepResult] <-2> WorkflowStepResult::info is deprecated, use stepInfo instead\n[openstudio.WorkflowStepResult] <-2> WorkflowStepResult::errors is deprecated, use stepErrors instead\n[openstudio.WorkflowStepResult] <-2> WorkflowStepResult::errors is deprecated, use stepErrors instead\n[openstudio.WorkflowStepResult] <-2> WorkflowStepResult::value is deprecated, use stepResult instead\n[openstudio.WorkflowStepResult] <0> WorkflowStepResult value called with undefined stepResult, returning 'Success'\n[openstudio.measure.OSRunner] <1> Cannot find current Workflow Step\n[openstudio.WorkflowStepResult] <-2> WorkflowStepResult::initialCondition is deprecated, use stepInitialCondition instead\n[openstudio.WorkflowStepResult] <-2> WorkflowStepResult::finalCondition is deprecated, use stepFinalCondition instead\n[openstudio.WorkflowStepResult] <-2> WorkflowStepResult::warnings is deprecated, use stepWarnings instead\n[openstudio.WorkflowStepResult] <-2> WorkflowStepResult::info is deprecated, use stepInfo instead\n[openstudio.WorkflowStepResult] <-2> WorkflowStepResult::errors is deprecated, use stepErrors instead\n[openstudio.WorkflowStepResult] <-2> WorkflowStepResult::errors is deprecated, use stepErrors instead\n[openstudio.WorkflowStepResult] <-2> WorkflowStepResult::value is deprecated, use stepResult instead\n[openstudio.WorkflowStepResult] <0> WorkflowStepResult value called with undefined stepResult, returning 'Success'\n[openstudio.measure.OSRunner] <1> Cannot find current Workflow Step\n[openstudio.WorkflowStepResult] <-2> WorkflowStepResult::initialCondition is deprecated, use stepInitialCondition instead\n[openstudio.WorkflowStepResult] <-2> WorkflowStepResult::finalCondition is deprecated, use stepFinalCondition instead\n[openstudio.WorkflowStepResult] <-2> WorkflowStepResult::warnings is deprecated, use stepWarnings instead\n[openstudio.WorkflowStepResult] <-2> WorkflowStepResult::info is deprecated, use stepInfo instead\n[openstudio.WorkflowStepResult] <-2> WorkflowStepResult::errors is deprecated, use stepErrors instead\n[openstudio.WorkflowStepResult] <-2> WorkflowStepResult::errors is deprecated, use stepErrors instead\n[openstudio.WorkflowStepResult] <-2> WorkflowStepResult::value is deprecated, use stepResult instead\n[openstudio.WorkflowStepResult] <0> WorkflowStepResult value called with undefined stepResult, returning 'Success'\n[openstudio.measure.OSRunner] <1> Cannot find current Workflow Step\n[openstudio.WorkflowStepResult] <-2> WorkflowStepResult::initialCondition is deprecated, use stepInitialCondition instead\n[openstudio.WorkflowStepResult] <-2> WorkflowStepResult::finalCondition is deprecated, use stepFinalCondition instead\n[openstudio.WorkflowStepResult] <-2> WorkflowStepResult::warnings is deprecated, use stepWarnings instead\n[openstudio.WorkflowStepResult] <-2> WorkflowStepResult::info is deprecated, use stepInfo instead\n[openstudio.WorkflowStepResult] <-2> WorkflowStepResult::errors is deprecated, use stepErrors instead\n[openstudio.WorkflowStepResult] <-2> WorkflowStepResult::errors is deprecated, use stepErrors instead\n[openstudio.WorkflowStepResult] <-2> WorkflowStepResult::value is deprecated, use stepResult instead\n[openstudio.WorkflowStepResult] <0> WorkflowStepResult value called with undefined stepResult, returning 'Success'\n[openstudio.measure.OSRunner] <1> Cannot find current Workflow Step\n[openstudio.WorkflowStepResult] <-2> WorkflowStepResult::initialCondition is deprecated, use stepInitialCondition instead\n[openstudio.WorkflowStepResult] <-2> WorkflowStepResult::finalCondition is deprecated, use stepFinalCondition instead\n[openstudio.WorkflowStepResult] <-2> WorkflowStepResult::warnings is deprecated, use stepWarnings instead\n[openstudio.WorkflowStepResult] <-2> WorkflowStepResult::info is deprecated, use stepInfo instead\n[openstudio.WorkflowStepResult] <-2> WorkflowStepResult::errors is deprecated, use stepErrors instead\n[openstudio.WorkflowStepResult] <-2> WorkflowStepResult::errors is deprecated, use stepErrors instead\n[openstudio.WorkflowStepResult] <-2> WorkflowStepResult::value is deprecated, use stepResult instead\n[openstudio.WorkflowStepResult] <0> WorkflowStepResult value called with undefined stepResult, returning 'Success'\n[openstudio.measure.OSRunner] <1> Cannot find current Workflow Step\n[openstudio.EpwFile] <0> Successive data points (1977-Jan-31 to 1978-Feb-01, ending on line 753) are greater than 1 day apart in EPW file '/mnt/openstudio/analysis_5b8bf959-6b87-4318-911c-88038d7f0940/weather/USA_CA_Los.Angeles.Intl.AP.722950_TMY3.epw'. Data will be treated as typical (TMY)\n[openstudio.WorkflowStepResult] <-2> WorkflowStepResult::initialCondition is deprecated, use stepInitialCondition instead\n[openstudio.WorkflowStepResult] <-2> WorkflowStepResult::finalCondition is deprecated, use stepFinalCondition instead\n[openstudio.WorkflowStepResult] <-2> WorkflowStepResult::finalCondition is deprecated, use stepFinalCondition instead\n[openstudio.WorkflowStepResult] <-2> WorkflowStepResult::warnings is deprecated, use stepWarnings instead\n[openstudio.WorkflowStepResult] <-2> WorkflowStepResult::info is deprecated, use stepInfo instead\n[openstudio.WorkflowStepResult] <-2> WorkflowStepResult::errors is deprecated, use stepErrors instead\n[openstudio.WorkflowStepResult] <-2> WorkflowStepResult::errors is deprecated, use stepErrors instead\n[openstudio.WorkflowStepResult] <-2> WorkflowStepResult::value is deprecated, use stepResult instead\n[openstudio.WorkflowStepResult] <0> WorkflowStepResult value called with undefined stepResult, returning 'Success'\n[openstudio.measure.OSRunner] <1> Cannot find current Workflow Step\n[openstudio.WorkflowStepResult] <-2> WorkflowStepResult::initialCondition is deprecated, use stepInitialCondition instead\n[openstudio.WorkflowStepResult] <-2> WorkflowStepResult::finalCondition is deprecated, use stepFinalCondition instead\n[openstudio.WorkflowStepResult] <-2> WorkflowStepResult::warnings is deprecated, use stepWarnings instead\n[openstudio.WorkflowStepResult] <-2> WorkflowStepResult::info is deprecated, use stepInfo instead\n[openstudio.WorkflowStepResult] <-2> WorkflowStepResult::errors is deprecated, use stepErrors instead\n[openstudio.WorkflowStepResult] <-2> WorkflowStepResult::errors is deprecated, use stepErrors instead\n[openstudio.WorkflowStepResult] <-2> WorkflowStepResult::value is deprecated, use stepResult instead\n[openstudio.WorkflowStepResult] <0> WorkflowStepResult value called with undefined stepResult, returning 'Success'\n[openstudio.measure.OSRunner] <1> Cannot find current Workflow Step\n[openstudio.WorkflowStepResult] <-2> WorkflowStepResult::initialCondition is deprecated, use stepInitialCondition instead\n[openstudio.WorkflowStepResult] <-2> WorkflowStepResult::finalCondition is deprecated, use stepFinalCondition instead\n[openstudio.WorkflowStepResult] <-2> WorkflowStepResult::warnings is deprecated, use stepWarnings instead\n[openstudio.WorkflowStepResult] <-2> WorkflowStepResult::info is deprecated, use stepInfo instead\n[openstudio.WorkflowStepResult] <-2> WorkflowStepResult::errors is deprecated, use stepErrors instead\n[openstudio.WorkflowStepResult] <-2> WorkflowStepResult::errors is deprecated, use stepErrors instead\n[openstudio.WorkflowStepResult] <-2> WorkflowStepResult::value is deprecated, use stepResult instead\n[openstudio.WorkflowStepResult] <0> WorkflowStepResult value called with undefined stepResult, returning 'Success'\n[openstudio.measure.OSRunner] <1> Cannot find current Workflow Step\n[openstudio.WorkflowStepResult] <-2> WorkflowStepResult::initialCondition is deprecated, use stepInitialCondition instead\n[openstudio.WorkflowStepResult] <-2> WorkflowStepResult::initialCondition is deprecated, use stepInitialCondition instead\n[openstudio.WorkflowStepResult] <-2> WorkflowStepResult::finalCondition is deprecated, use stepFinalCondition instead\n[openstudio.WorkflowStepResult] <-2> WorkflowStepResult::finalCondition is deprecated, use stepFinalCondition instead\n[openstudio.WorkflowStepResult] <-2> WorkflowStepResult::warnings is deprecated, use stepWarnings instead\n[openstudio.WorkflowStepResult] <-2> WorkflowStepResult::info is deprecated, use stepInfo instead\n[openstudio.WorkflowStepResult] <-2> WorkflowStepResult::errors is deprecated, use stepErrors instead\n[openstudio.WorkflowStepResult] <-2> WorkflowStepResult::errors is deprecated, use stepErrors instead\n[openstudio.WorkflowStepResult] <-2> WorkflowStepResult::value is deprecated, use stepResult instead\n[openstudio.WorkflowStepResult] <0> WorkflowStepResult value called with undefined stepResult, returning 'Success'\n[openstudio.measure.OSRunner] <1> Cannot find current Workflow Step\n[openstudio.WorkflowStepResult] <-2> WorkflowStepResult::initialCondition is deprecated, use stepInitialCondition instead\n[openstudio.WorkflowStepResult] <-2> WorkflowStepResult::finalCondition is deprecated, use stepFinalCondition instead\n[openstudio.WorkflowStepResult] <-2> WorkflowStepResult::finalCondition is deprecated, use stepFinalCondition instead\n[openstudio.WorkflowStepResult] <-2> WorkflowStepResult::warnings is deprecated, use stepWarnings instead\n[openstudio.WorkflowStepResult] <-2> WorkflowStepResult::info is deprecated, use stepInfo instead\n[openstudio.WorkflowStepResult] <-2> WorkflowStepResult::errors is deprecated, use stepErrors instead\n[openstudio.WorkflowStepResult] <-2> WorkflowStepResult::errors is deprecated, use stepErrors instead\n[openstudio.WorkflowStepResult] <-2> WorkflowStepResult::value is deprecated, use stepResult instead\n[openstudio.WorkflowStepResult] <0> WorkflowStepResult value called with undefined stepResult, returning 'Success'\n[openstudio.measure.OSRunner] <1> Cannot find current Workflow Step\n[openstudio.WorkflowStepResult] <-2> WorkflowStepResult::initialCondition is deprecated, use stepInitialCondition instead\n[openstudio.WorkflowStepResult] <-2> WorkflowStepResult::finalCondition is deprecated, use stepFinalCondition instead\n[openstudio.WorkflowStepResult] <-2> WorkflowStepResult::finalCondition is deprecated, use stepFinalCondition instead\n[openstudio.WorkflowStepResult] <-2> WorkflowStepResult::warnings is deprecated, use stepWarnings instead\n[openstudio.WorkflowStepResult] <-2> WorkflowStepResult::info is deprecated, use stepInfo instead\n[openstudio.WorkflowStepResult] <-2> WorkflowStepResult::errors is deprecated, use stepErrors instead\n[openstudio.WorkflowStepResult] <-2> WorkflowStepResult::errors is deprecated, use stepErrors instead\n[openstudio.WorkflowStepResult] <-2> WorkflowStepResult::value is deprecated, use stepResult instead\n[openstudio.WorkflowStepResult] <0> WorkflowStepResult value called with undefined stepResult, returning 'Success'\n[openstudio.measure.OSRunner] <1> Cannot find current Workflow Step\n[openstudio.WorkflowStepResult] <-2> WorkflowStepResult::initialCondition is deprecated, use stepInitialCondition instead\n[openstudio.WorkflowStepResult] <-2> WorkflowStepResult::finalCondition is deprecated, use stepFinalCondition instead\n[openstudio.WorkflowStepResult] <-2> WorkflowStepResult::warnings is deprecated, use stepWarnings instead\n[openstudio.WorkflowStepResult] <-2> WorkflowStepResult::info is deprecated, use stepInfo instead\n[openstudio.WorkflowStepResult] <-2> WorkflowStepResult::errors is deprecated, use stepErrors instead\n[openstudio.WorkflowStepResult] <-2> WorkflowStepResult::errors is deprecated, use stepErrors instead\n[openstudio.WorkflowStepResult] <-2> WorkflowStepResult::value is deprecated, use stepResult instead\n[openstudio.WorkflowStepResult] <0> WorkflowStepResult value called with undefined stepResult, returning 'Success'\n[openstudio.measure.OSRunner] <1> Cannot find current Workflow Step\n[openstudio.Model.Model] <-1> Adding hot water loop.\n[openstudio.Model.Model] <-1> New high temperature hot water loop created.\n[openstudio.Model.Model] <-1> Adding chilled water loop.\n[openstudio.Model.Model] <-1> Adding fan coil for living zone.\n[openstudio.WorkflowStepResult] <-2> WorkflowStepResult::initialCondition is deprecated, use stepInitialCondition instead\n[openstudio.WorkflowStepResult] <-2> WorkflowStepResult::finalCondition is deprecated, use stepFinalCondition instead\n[openstudio.WorkflowStepResult] <-2> WorkflowStepResult::warnings is deprecated, use stepWarnings instead\n[openstudio.WorkflowStepResult] <-2> WorkflowStepResult::info is deprecated, use stepInfo instead\n[openstudio.WorkflowStepResult] <-2> WorkflowStepResult::errors is deprecated, use stepErrors instead\n[openstudio.WorkflowStepResult] <-2> WorkflowStepResult::errors is deprecated, use stepErrors instead\n[openstudio.WorkflowStepResult] <-2> WorkflowStepResult::value is deprecated, use stepResult instead\n[openstudio.WorkflowStepResult] <0> WorkflowStepResult value called with undefined stepResult, returning 'Success'\n[openstudio.measure.OSRunner] <1> Cannot find current Workflow Step\n[openstudio.EpwFile] <0> Successive data points (1977-Jan-31 to 1978-Feb-01, ending on line 753) are greater than 1 day apart in EPW file '/mnt/openstudio/analysis_5b8bf959-6b87-4318-911c-88038d7f0940/weather/USA_CA_Los.Angeles.Intl.AP.722950_TMY3.epw'. Data will be treated as typical (TMY)\n[utilities.idf.Workspace] <-1> Renamed Object of type 'OS:Schedule:Day' and named 'Schedule Day 11' to 'Schedule Day 14' to avoid a name conflict upon WorkspaceObject addition.\n[utilities.idf.Workspace] <-1> Renamed Object of type 'OS:Schedule:Day' and named 'Schedule Day 12' to 'Schedule Day 14' to avoid a name conflict upon WorkspaceObject addition.\n[utilities.idf.Workspace] <-1> Renamed Object of type 'OS:Schedule:Day' and named 'Schedule Day 11' to 'Schedule Day 15' to avoid a name conflict upon WorkspaceObject addition.\n[utilities.idf.Workspace] <-1> Renamed Object of type 'OS:Schedule:Day' and named 'Schedule Day 12' to 'Schedule Day 15' to avoid a name conflict upon WorkspaceObject addition.\n[openstudio.WorkflowStepResult] <-2> WorkflowStepResult::initialCondition is deprecated, use stepInitialCondition instead\n[openstudio.WorkflowStepResult] <-2> WorkflowStepResult::finalCondition is deprecated, use stepFinalCondition instead\n[openstudio.WorkflowStepResult] <-2> WorkflowStepResult::warnings is deprecated, use stepWarnings instead\n[openstudio.WorkflowStepResult] <-2> WorkflowStepResult::info is deprecated, use stepInfo instead\n[openstudio.WorkflowStepResult] <-2> WorkflowStepResult::errors is deprecated, use stepErrors instead\n[openstudio.WorkflowStepResult] <-2> WorkflowStepResult::errors is deprecated, use stepErrors instead\n[openstudio.WorkflowStepResult] <-2> WorkflowStepResult::value is deprecated, use stepResult instead\n[openstudio.WorkflowStepResult] <0> WorkflowStepResult value called with undefined stepResult, returning 'Success'\n[openstudio.measure.OSRunner] <1> Cannot find current Workflow Step\n[openstudio.EpwFile] <0> Successive data points (1977-Jan-31 to 1978-Feb-01, ending on line 753) are greater than 1 day apart in EPW file '/mnt/openstudio/analysis_5b8bf959-6b87-4318-911c-88038d7f0940/weather/USA_CA_Los.Angeles.Intl.AP.722950_TMY3.epw'. Data will be treated as typical (TMY)\n[utilities.idf.Workspace] <-1> Renamed Object of type 'OS:Schedule:Day' and named 'Schedule Day 2' to 'Schedule Day 13' to avoid a name conflict upon WorkspaceObject addition.\n[utilities.idf.Workspace] <-1> Renamed Object of type 'OS:Schedule:Day' and named 'Schedule Day 11' to 'Schedule Day 13' to avoid a name conflict upon WorkspaceObject addition.\n[utilities.idf.Workspace] <-1> Renamed Object of type 'OS:Schedule:Day' and named 'Schedule Day 2' to 'Schedule Day 14' to avoid a name conflict upon WorkspaceObject addition.\n[utilities.idf.Workspace] <-1> Renamed Object of type 'OS:Schedule:Day' and named 'Schedule Day 11' to 'Schedule Day 14' to avoid a name conflict upon WorkspaceObject addition.\n[openstudio.WorkflowStepResult] <-2> WorkflowStepResult::initialCondition is deprecated, use stepInitialCondition instead\n[openstudio.WorkflowStepResult] <-2> WorkflowStepResult::finalCondition is deprecated, use stepFinalCondition instead\n[openstudio.WorkflowStepResult] <-2> WorkflowStepResult::warnings is deprecated, use stepWarnings instead\n[openstudio.WorkflowStepResult] <-2> WorkflowStepResult::info is deprecated, use stepInfo instead\n[openstudio.WorkflowStepResult] <-2> WorkflowStepResult::errors is deprecated, use stepErrors instead\n[openstudio.WorkflowStepResult] <-2> WorkflowStepResult::errors is deprecated, use stepErrors instead\n[openstudio.WorkflowStepResult] <-2> WorkflowStepResult::value is deprecated, use stepResult instead\n[openstudio.WorkflowStepResult] <0> WorkflowStepResult value called with undefined stepResult, returning 'Success'\n[openstudio.measure.OSRunner] <1> Cannot find current Workflow Step\n[openstudio.WorkflowStepResult] <-2> WorkflowStepResult::initialCondition is deprecated, use stepInitialCondition instead\n[openstudio.WorkflowStepResult] <-2> WorkflowStepResult::finalCondition is deprecated, use stepFinalCondition instead\n[openstudio.WorkflowStepResult] <-2> WorkflowStepResult::warnings is deprecated, use stepWarnings instead\n[openstudio.WorkflowStepResult] <-2> WorkflowStepResult::info is deprecated, use stepInfo instead\n[openstudio.WorkflowStepResult] <-2> WorkflowStepResult::errors is deprecated, use stepErrors instead\n[openstudio.WorkflowStepResult] <-2> WorkflowStepResult::errors is deprecated, use stepErrors instead\n[openstudio.WorkflowStepResult] <-2> WorkflowStepResult::value is deprecated, use stepResult instead\n[openstudio.WorkflowStepResult] <0> WorkflowStepResult value called with undefined stepResult, returning 'Success'\n[openstudio.measure.OSRunner] <1> Cannot find current Workflow Step\n[utilities.idf.Workspace] <-1> Renamed Object of type 'OS:Schedule:Day' and named 'Schedule Day 14' to 'Schedule Day 17' to avoid a name conflict upon WorkspaceObject addition.\n[utilities.idf.Workspace] <-1> Renamed Object of type 'OS:Schedule:Day' and named 'Schedule Day 15' to 'Schedule Day 17' to avoid a name conflict upon WorkspaceObject addition.\n[openstudio.WorkflowStepResult] <-2> WorkflowStepResult::initialCondition is deprecated, use stepInitialCondition instead\n[openstudio.WorkflowStepResult] <-2> WorkflowStepResult::finalCondition is deprecated, use stepFinalCondition instead\n[openstudio.WorkflowStepResult] <-2> WorkflowStepResult::finalCondition is deprecated, use stepFinalCondition instead\n[openstudio.WorkflowStepResult] <-2> WorkflowStepResult::warnings is deprecated, use stepWarnings instead\n[openstudio.WorkflowStepResult] <-2> WorkflowStepResult::info is deprecated, use stepInfo instead\n[openstudio.WorkflowStepResult] <-2> WorkflowStepResult::errors is deprecated, use stepErrors instead\n[openstudio.WorkflowStepResult] <-2> WorkflowStepResult::errors is deprecated, use stepErrors instead\n[openstudio.WorkflowStepResult] <-2> WorkflowStepResult::value is deprecated, use stepResult instead\n[openstudio.WorkflowStepResult] <0> WorkflowStepResult value called with undefined stepResult, returning 'Success'\n[openstudio.measure.OSRunner] <1> Cannot find current Workflow Step\n[openstudio.WorkflowStepResult] <-2> WorkflowStepResult::initialCondition is deprecated, use stepInitialCondition instead\n[openstudio.WorkflowStepResult] <-2> WorkflowStepResult::finalCondition is deprecated, use stepFinalCondition instead\n[openstudio.WorkflowStepResult] <-2> WorkflowStepResult::finalCondition is deprecated, use stepFinalCondition instead\n[openstudio.WorkflowStepResult] <-2> WorkflowStepResult::warnings is deprecated, use stepWarnings instead\n[openstudio.WorkflowStepResult] <-2> WorkflowStepResult::info is deprecated, use stepInfo instead\n[openstudio.WorkflowStepResult] <-2> WorkflowStepResult::errors is deprecated, use stepErrors instead\n[openstudio.WorkflowStepResult] <-2> WorkflowStepResult::errors is deprecated, use stepErrors instead\n[openstudio.WorkflowStepResult] <-2> WorkflowStepResult::value is deprecated, use stepResult instead\n[openstudio.WorkflowStepResult] <0> WorkflowStepResult value called with undefined stepResult, returning 'Success'\n[openstudio.measure.OSRunner] <1> Cannot find current Workflow Step\n[openstudio.WorkflowStepResult] <-2> WorkflowStepResult::initialCondition is deprecated, use stepInitialCondition instead\n[openstudio.WorkflowStepResult] <-2> WorkflowStepResult::finalCondition is deprecated, use stepFinalCondition instead\n[openstudio.WorkflowStepResult] <-2> WorkflowStepResult::finalCondition is deprecated, use stepFinalCondition instead\n[openstudio.WorkflowStepResult] <-2> WorkflowStepResult::warnings is deprecated, use stepWarnings instead\n[openstudio.WorkflowStepResult] <-2> WorkflowStepResult::info is deprecated, use stepInfo instead\n[openstudio.WorkflowStepResult] <-2> WorkflowStepResult::errors is deprecated, use stepErrors instead\n[openstudio.WorkflowStepResult] <-2> WorkflowStepResult::errors is deprecated, use stepErrors instead\n[openstudio.WorkflowStepResult] <-2> WorkflowStepResult::value is deprecated, use stepResult instead\n[openstudio.WorkflowStepResult] <0> WorkflowStepResult value called with undefined stepResult, returning 'Success'\n[openstudio.measure.OSRunner] <1> Cannot find current Workflow Step\n[utilities.idf.Workspace] <-1> Renamed Object of type 'OS:Schedule:Day' and named 'Schedule Day 19' to 'Schedule Day 22' to avoid a name conflict upon WorkspaceObject addition.\n[utilities.idf.Workspace] <-1> Renamed Object of type 'OS:Schedule:Day' and named 'Schedule Day 20' to 'Schedule Day 22' to avoid a name conflict upon WorkspaceObject addition.\n[openstudio.WorkflowStepResult] <-2> WorkflowStepResult::initialCondition is deprecated, use stepInitialCondition instead\n[openstudio.WorkflowStepResult] <-2> WorkflowStepResult::finalCondition is deprecated, use stepFinalCondition instead\n[openstudio.WorkflowStepResult] <-2> WorkflowStepResult::finalCondition is deprecated, use stepFinalCondition instead\n[openstudio.WorkflowStepResult] <-2> WorkflowStepResult::warnings is deprecated, use stepWarnings instead\n[openstudio.WorkflowStepResult] <-2> WorkflowStepResult::info is deprecated, use stepInfo instead\n[openstudio.WorkflowStepResult] <-2> WorkflowStepResult::errors is deprecated, use stepErrors instead\n[openstudio.WorkflowStepResult] <-2> WorkflowStepResult::errors is deprecated, use stepErrors instead\n[openstudio.WorkflowStepResult] <-2> WorkflowStepResult::value is deprecated, use stepResult instead\n[openstudio.WorkflowStepResult] <0> WorkflowStepResult value called with undefined stepResult, returning 'Success'\n[openstudio.measure.OSRunner] <1> Cannot find current Workflow Step\n[openstudio.EpwFile] <0> Successive data points (1977-Jan-31 to 1978-Feb-01, ending on line 753) are greater than 1 day apart in EPW file '/mnt/openstudio/analysis_5b8bf959-6b87-4318-911c-88038d7f0940/weather/USA_CA_Los.Angeles.Intl.AP.722950_TMY3.epw'. Data will be treated as typical (TMY)\n[utilities.idf.Workspace] <-1> Renamed Object of type 'OS:Schedule:Day' and named 'Schedule Day 22' to 'Schedule Day 25' to avoid a name conflict upon WorkspaceObject addition.\n[utilities.idf.Workspace] <-1> Renamed Object of type 'OS:Schedule:Day' and named 'Schedule Day 23' to 'Schedule Day 25' to avoid a name conflict upon WorkspaceObject addition.\n[openstudio.WorkflowStepResult] <-2> WorkflowStepResult::initialCondition is deprecated, use stepInitialCondition instead\n[openstudio.WorkflowStepResult] <-2> WorkflowStepResult::finalCondition is deprecated, use stepFinalCondition instead\n[openstudio.WorkflowStepResult] <-2> WorkflowStepResult::finalCondition is deprecated, use stepFinalCondition instead\n[openstudio.WorkflowStepResult] <-2> WorkflowStepResult::warnings is deprecated, use stepWarnings instead\n[openstudio.WorkflowStepResult] <-2> WorkflowStepResult::info is deprecated, use stepInfo instead\n[openstudio.WorkflowStepResult] <-2> WorkflowStepResult::errors is deprecated, use stepErrors instead\n[openstudio.WorkflowStepResult] <-2> WorkflowStepResult::errors is deprecated, use stepErrors instead\n[openstudio.WorkflowStepResult] <-2> WorkflowStepResult::value is deprecated, use stepResult instead\n[openstudio.WorkflowStepResult] <0> WorkflowStepResult value called with undefined stepResult, returning 'Success'\n[openstudio.measure.OSRunner] <1> Cannot find current Workflow Step\n[utilities.idf.Workspace] <-1> Renamed Object of type 'OS:Schedule:Day' and named 'Schedule Day 25' to 'Schedule Day 28' to avoid a name conflict upon WorkspaceObject addition.\n[utilities.idf.Workspace] <-1> Renamed Object of type 'OS:Schedule:Day' and named 'Schedule Day 26' to 'Schedule Day 28' to avoid a name conflict upon WorkspaceObject addition.\n[openstudio.WorkflowStepResult] <-2> WorkflowStepResult::initialCondition is deprecated, use stepInitialCondition instead\n[openstudio.WorkflowStepResult] <-2> WorkflowStepResult::finalCondition is deprecated, use stepFinalCondition instead\n[openstudio.WorkflowStepResult] <-2> WorkflowStepResult::finalCondition is deprecated, use stepFinalCondition instead\n[openstudio.WorkflowStepResult] <-2> WorkflowStepResult::warnings is deprecated, use stepWarnings instead\n[openstudio.WorkflowStepResult] <-2> WorkflowStepResult::info is deprecated, use stepInfo instead\n[openstudio.WorkflowStepResult] <-2> WorkflowStepResult::errors is deprecated, use stepErrors instead\n[openstudio.WorkflowStepResult] <-2> WorkflowStepResult::errors is deprecated, use stepErrors instead\n[openstudio.WorkflowStepResult] <-2> WorkflowStepResult::value is deprecated, use stepResult instead\n[openstudio.WorkflowStepResult] <0> WorkflowStepResult value called with undefined stepResult, returning 'Success'\n[openstudio.measure.OSRunner] <1> Cannot find current Workflow Step\n[utilities.idf.Workspace] <-1> Renamed Object of type 'OS:Schedule:Day' and named 'Schedule Day 28' to 'Schedule Day 31' to avoid a name conflict upon WorkspaceObject addition.\n[utilities.idf.Workspace] <-1> Renamed Object of type 'OS:Schedule:Day' and named 'Schedule Day 29' to 'Schedule Day 31' to avoid a name conflict upon WorkspaceObject addition.\n[utilities.idf.Workspace] <-1> Renamed Object of type 'OS:Schedule:Day' and named 'Schedule Day 31' to 'Schedule Day 34' to avoid a name conflict upon WorkspaceObject addition.\n[utilities.idf.Workspace] <-1> Renamed Object of type 'OS:Schedule:Day' and named 'Schedule Day 32' to 'Schedule Day 34' to avoid a name conflict upon WorkspaceObject addition.\n[utilities.idf.Workspace] <-1> Renamed Object of type 'OS:Schedule:Day' and named 'Schedule Day 34' to 'Schedule Day 37' to avoid a name conflict upon WorkspaceObject addition.\n[utilities.idf.Workspace] <-1> Renamed Object of type 'OS:Schedule:Day' and named 'Schedule Day 35' to 'Schedule Day 37' to avoid a name conflict upon WorkspaceObject addition.\n[utilities.idf.Workspace] <-1> Renamed Object of type 'OS:Schedule:Day' and named 'Schedule Day 41' to 'Schedule Day 44' to avoid a name conflict upon WorkspaceObject addition.\n[utilities.idf.Workspace] <-1> Renamed Object of type 'OS:Schedule:Day' and named 'Schedule Day 42' to 'Schedule Day 44' to avoid a name conflict upon WorkspaceObject addition.\n[utilities.idf.Workspace] <-1> Renamed Object of type 'OS:Schedule:Day' and named 'Schedule Day 48' to 'Schedule Day 51' to avoid a name conflict upon WorkspaceObject addition.\n[utilities.idf.Workspace] <-1> Renamed Object of type 'OS:Schedule:Day' and named 'Schedule Day 49' to 'Schedule Day 51' to avoid a name conflict upon WorkspaceObject addition.\n[utilities.idf.Workspace] <-1> Renamed Object of type 'OS:Schedule:Day' and named 'Schedule Day 51' to 'Schedule Day 54' to avoid a name conflict upon WorkspaceObject addition.\n[utilities.idf.Workspace] <-1> Renamed Object of type 'OS:Schedule:Day' and named 'Schedule Day 52' to 'Schedule Day 54' to avoid a name conflict upon WorkspaceObject addition.\n[utilities.idf.Workspace] <-1> Renamed Object of type 'OS:Schedule:Day' and named 'Schedule Day 54' to 'Schedule Day 57' to avoid a name conflict upon WorkspaceObject addition.\n[utilities.idf.Workspace] <-1> Renamed Object of type 'OS:Schedule:Day' and named 'Schedule Day 55' to 'Schedule Day 57' to avoid a name conflict upon WorkspaceObject addition.\n[utilities.idf.Workspace] <-1> Renamed Object of type 'OS:Schedule:Day' and named 'Schedule Day 57' to 'Schedule Day 60' to avoid a name conflict upon WorkspaceObject addition.\n[utilities.idf.Workspace] <-1> Renamed Object of type 'OS:Schedule:Day' and named 'Schedule Day 58' to 'Schedule Day 60' to avoid a name conflict upon WorkspaceObject addition.\n[openstudio.WorkflowStepResult] <-2> WorkflowStepResult::initialCondition is deprecated, use stepInitialCondition instead\n[openstudio.WorkflowStepResult] <-2> WorkflowStepResult::finalCondition is deprecated, use stepFinalCondition instead\n[openstudio.WorkflowStepResult] <-2> WorkflowStepResult::finalCondition is deprecated, use stepFinalCondition instead\n[openstudio.WorkflowStepResult] <-2> WorkflowStepResult::warnings is deprecated, use stepWarnings instead\n[openstudio.WorkflowStepResult] <-2> WorkflowStepResult::info is deprecated, use stepInfo instead\n[openstudio.WorkflowStepResult] <-2> WorkflowStepResult::errors is deprecated, use stepErrors instead\n[openstudio.WorkflowStepResult] <-2> WorkflowStepResult::errors is deprecated, use stepErrors instead\n[openstudio.WorkflowStepResult] <-2> WorkflowStepResult::value is deprecated, use stepResult instead\n[openstudio.WorkflowStepResult] <0> WorkflowStepResult value called with undefined stepResult, returning 'Success'\n[openstudio.measure.OSRunner] <1> Cannot find current Workflow Step\n[openstudio.EpwFile] <0> Successive data points (1977-Jan-31 to 1978-Feb-01, ending on line 753) are greater than 1 day apart in EPW file '/mnt/openstudio/analysis_5b8bf959-6b87-4318-911c-88038d7f0940/weather/USA_CA_Los.Angeles.Intl.AP.722950_TMY3.epw'. Data will be treated as typical (TMY)\n[utilities.idf.Workspace] <-1> Renamed Object of type 'OS:Schedule:Day' and named 'Schedule Day 62' to 'Schedule Day 65' to avoid a name conflict upon WorkspaceObject addition.\n[utilities.idf.Workspace] <-1> Renamed Object of type 'OS:Schedule:Day' and named 'Schedule Day 63' to 'Schedule Day 65' to avoid a name conflict upon WorkspaceObject addition.\n[utilities.idf.Workspace] <-1> Renamed Object of type 'OS:Schedule:Day' and named 'Schedule Day 62' to 'Schedule Day 66' to avoid a name conflict upon WorkspaceObject addition.\n[utilities.idf.Workspace] <-1> Renamed Object of type 'OS:Schedule:Day' and named 'Schedule Day 63' to 'Schedule Day 66' to avoid a name conflict upon WorkspaceObject addition.\n[openstudio.WorkflowStepResult] <-2> WorkflowStepResult::initialCondition is deprecated, use stepInitialCondition instead\n[openstudio.WorkflowStepResult] <-2> WorkflowStepResult::finalCondition is deprecated, use stepFinalCondition instead\n[openstudio.WorkflowStepResult] <-2> WorkflowStepResult::warnings is deprecated, use stepWarnings instead\n[openstudio.WorkflowStepResult] <-2> WorkflowStepResult::info is deprecated, use stepInfo instead\n[openstudio.WorkflowStepResult] <-2> WorkflowStepResult::errors is deprecated, use stepErrors instead\n[openstudio.WorkflowStepResult] <-2> WorkflowStepResult::errors is deprecated, use stepErrors instead\n[openstudio.WorkflowStepResult] <-2> WorkflowStepResult::value is deprecated, use stepResult instead\n[openstudio.WorkflowStepResult] <0> WorkflowStepResult value called with undefined stepResult, returning 'Success'\n[openstudio.measure.OSRunner] <1> Cannot find current Workflow Step\n[openstudio.EpwFile] <0> Successive data points (1977-Jan-31 to 1978-Feb-01, ending on line 753) are greater than 1 day apart in EPW file '/mnt/openstudio/analysis_5b8bf959-6b87-4318-911c-88038d7f0940/weather/USA_CA_Los.Angeles.Intl.AP.722950_TMY3.epw'. Data will be treated as typical (TMY)\n[openstudio.WorkflowStepResult] <-2> WorkflowStepResult::initialCondition is deprecated, use stepInitialCondition instead\n[openstudio.WorkflowStepResult] <-2> WorkflowStepResult::fi
[...]
n[openstudio.energyplus.SqlFile] <-2> Making time series for envPeriod = 'RUN PERIOD 1', reportingFrequency = 'Hourly', timeSeriesName = 'Humidifier:DistrictCooling', keyValue = ''\n[openstudio.energyplus.SqlFile] <-2> Tuple: RUN PERIOD 1, Hourly, Humidifier:DistrictCooling,  not found in data dictionary.\n[openstudio.energyplus.SqlFile] <-2> No time series found\n[openstudio.energyplus.SqlFile] <-2> Making time series for envPeriod = 'RUN PERIOD 1', reportingFrequency = 'Hourly', timeSeriesName = 'Humidifier:DistrictHeating', keyValue = ''\n[openstudio.energyplus.SqlFile] <-2> Tuple: RUN PERIOD 1, Hourly, Humidifier:DistrictHeating,  not found in data dictionary.\n[openstudio.energyplus.SqlFile] <-2> No time series found\n[openstudio.energyplus.SqlFile] <-2> Making time series for envPeriod = 'RUN PERIOD 1', reportingFrequency = 'Hourly', timeSeriesName = 'Humidifier:Water', keyValue = ''\n[openstudio.energyplus.SqlFile] <-2> Tuple: RUN PERIOD 1, Hourly, Humidifier:Water,  not found in data dictionary.\n[openstudio.energyplus.SqlFile] <-2> No time series found\n[openstudio.energyplus.SqlFile] <-2> Making time series for envPeriod = 'RUN PERIOD 1', reportingFrequency = 'Hourly', timeSeriesName = 'Humidifier:FuelOil#1', keyValue = ''\n[openstudio.energyplus.SqlFile] <-2> Tuple: RUN PERIOD 1, Hourly, Humidifier:FuelOil#1,  not found in data dictionary.\n[openstudio.energyplus.SqlFile] <-2> No time series found\n[openstudio.energyplus.SqlFile] <-2> Making time series for envPeriod = 'RUN PERIOD 1', reportingFrequency = 'Hourly', timeSeriesName = 'Humidifier:Propane', keyValue = ''\n[openstudio.energyplus.SqlFile] <-2> Tuple: RUN PERIOD 1, Hourly, Humidifier:Propane,  not found in data dictionary.\n[openstudio.energyplus.SqlFile] <-2> No time series found\n[openstudio.energyplus.SqlFile] <-2> Making time series for envPeriod = 'RUN PERIOD 1', reportingFrequency = 'Hourly', timeSeriesName = 'Humidifier:ElectricityProduced', keyValue = ''\n[openstudio.energyplus.SqlFile] <-2> Tuple: RUN PERIOD 1, Hourly, Humidifier:ElectricityProduced,  not found in data dictionary.\n[openstudio.energyplus.SqlFile] <-2> No time series found\n[openstudio.energyplus.SqlFile] <-2> Making time series for envPeriod = 'RUN PERIOD 1', reportingFrequency = 'Hourly', timeSeriesName = 'HeatRecovery:Electricity', keyValue = ''\n[openstudio.energyplus.SqlFile] <-2> Tuple: RUN PERIOD 1, Hourly, HeatRecovery:Electricity,  not found in data dictionary.\n[openstudio.energyplus.SqlFile] <-2> No time series found\n[openstudio.energyplus.SqlFile] <-2> Making time series for envPeriod = 'RUN PERIOD 1', reportingFrequency = 'Hourly', timeSeriesName = 'HeatRecovery:Gas', keyValue = ''\n[openstudio.energyplus.SqlFile] <-2> Tuple: RUN PERIOD 1, Hourly, HeatRecovery:Gas,  not found in data dictionary.\n[openstudio.energyplus.SqlFile] <-2> No time series found\n[openstudio.energyplus.SqlFile] <-2> Making time series for envPeriod = 'RUN PERIOD 1', reportingFrequency = 'Hourly', timeSeriesName = 'HeatRecovery:DistrictCooling', keyValue = ''\n[openstudio.energyplus.SqlFile] <-2> Tuple: RUN PERIOD 1, Hourly, HeatRecovery:DistrictCooling,  not found in data dictionary.\n[openstudio.energyplus.SqlFile] <-2> No time series found\n[openstudio.energyplus.SqlFile] <-2> Making time series for envPeriod = 'RUN PERIOD 1', reportingFrequency = 'Hourly', timeSeriesName = 'HeatRecovery:DistrictHeating', keyValue = ''\n[openstudio.energyplus.SqlFile] <-2> Tuple: RUN PERIOD 1, Hourly, HeatRecovery:DistrictHeating,  not found in data dictionary.\n[openstudio.energyplus.SqlFile] <-2> No time series found\n[openstudio.energyplus.SqlFile] <-2> Making time series for envPeriod = 'RUN PERIOD 1', reportingFrequency = 'Hourly', timeSeriesName = 'HeatRecovery:Water', keyValue = ''\n[openstudio.energyplus.SqlFile] <-2> Tuple: RUN PERIOD 1, Hourly, HeatRecovery:Water,  not found in data dictionary.\n[openstudio.energyplus.SqlFile] <-2> No time series found\n[openstudio.energyplus.SqlFile] <-2> Making time series for envPeriod = 'RUN PERIOD 1', reportingFrequency = 'Hourly', timeSeriesName = 'HeatRecovery:FuelOil#1', keyValue = ''\n[openstudio.energyplus.SqlFile] <-2> Tuple: RUN PERIOD 1, Hourly, HeatRecovery:FuelOil#1,  not found in data dictionary.\n[openstudio.energyplus.SqlFile] <-2> No time series found\n[openstudio.energyplus.SqlFile] <-2> Making time series for envPeriod = 'RUN PERIOD 1', reportingFrequency = 'Hourly', timeSeriesName = 'HeatRecovery:Propane', keyValue = ''\n[openstudio.energyplus.SqlFile] <-2> Tuple: RUN PERIOD 1, Hourly, HeatRecovery:Propane,  not found in data dictionary.\n[openstudio.energyplus.SqlFile] <-2> No time series found\n[openstudio.energyplus.SqlFile] <-2> Making time series for envPeriod = 'RUN PERIOD 1', reportingFrequency = 'Hourly', timeSeriesName = 'HeatRecovery:ElectricityProduced', keyValue = ''\n[openstudio.energyplus.SqlFile] <-2> Tuple: RUN PERIOD 1, Hourly, HeatRecovery:ElectricityProduced,  not found in data dictionary.\n[openstudio.energyplus.SqlFile] <-2> No time series found\n[openstudio.energyplus.SqlFile] <-2> Making time series for envPeriod = 'RUN PERIOD 1', reportingFrequency = 'Hourly', timeSeriesName = 'WaterSystems:Electricity', keyValue = ''\n[openstudio.energyplus.SqlFile] <-2> RUN PERIOD 1\n[openstudio.energyplus.SqlFile] <-2> WaterSystems:Electricity\n[openstudio.energyplus.SqlFile] <-2> SQL Query:\nSELECT dt.VariableValue, Time.Month, Time.Day, Time.Hour, Time.Minute, Time.Interval FROM ReportMeterData dt INNER JOIN Time ON Time.timeIndex = dt.TimeIndex WHERE  dt.ReportMeterDataDictionaryIndex=604 AND Time.EnvironmentPeriodIndex = 3Return Code:\n100\n[openstudio.energyplus.SqlFile] <-2> Time series found\n[openstudio.energyplus.SqlFile] <-2> Making time series for envPeriod = 'RUN PERIOD 1', reportingFrequency = 'Hourly', timeSeriesName = 'WaterSystems:Gas', keyValue = ''\n[openstudio.energyplus.SqlFile] <-2> RUN PERIOD 1\n[openstudio.energyplus.SqlFile] <-2> WaterSystems:Gas\n[openstudio.energyplus.SqlFile] <-2> SQL Query:\nSELECT dt.VariableValue, Time.Month, Time.Day, Time.Hour, Time.Minute, Time.Interval FROM ReportMeterData dt INNER JOIN Time ON Time.timeIndex = dt.TimeIndex WHERE  dt.ReportMeterDataDictionaryIndex=567 AND Time.EnvironmentPeriodIndex = 3Return Code:\n100\n[openstudio.energyplus.SqlFile] <-2> Time series found\n[openstudio.energyplus.SqlFile] <-2> Making time series for envPeriod = 'RUN PERIOD 1', reportingFrequency = 'Hourly', timeSeriesName = 'WaterSystems:DistrictCooling', keyValue = ''\n[openstudio.energyplus.SqlFile] <-2> Tuple: RUN PERIOD 1, Hourly, WaterSystems:DistrictCooling,  not found in data dictionary.\n[openstudio.energyplus.SqlFile] <-2> No time series found\n[openstudio.energyplus.SqlFile] <-2> Making time series for envPeriod = 'RUN PERIOD 1', reportingFrequency = 'Hourly', timeSeriesName = 'WaterSystems:DistrictHeating', keyValue = ''\n[openstudio.energyplus.SqlFile] <-2> Tuple: RUN PERIOD 1, Hourly, WaterSystems:DistrictHeating,  not found in data dictionary.\n[openstudio.energyplus.SqlFile] <-2> No time series found\n[openstudio.energyplus.SqlFile] <-2> Making time series for envPeriod = 'RUN PERIOD 1', reportingFrequency = 'Hourly', timeSeriesName = 'WaterSystems:Water', keyValue = ''\n[openstudio.energyplus.SqlFile] <-2> RUN PERIOD 1\n[openstudio.energyplus.SqlFile] <-2> WaterSystems:Water\n[openstudio.energyplus.SqlFile] <-2> SQL Query:\nSELECT dt.VariableValue, Time.Month, Time.Day, Time.Hour, Time.Minute, Time.Interval FROM ReportMeterData dt INNER JOIN Time ON Time.timeIndex = dt.TimeIndex WHERE  dt.ReportMeterDataDictionaryIndex=654 AND Time.EnvironmentPeriodIndex = 3Return Code:\n100\n[openstudio.energyplus.SqlFile] <-2> Time series found\n[openstudio.energyplus.SqlFile] <-2> Making time series for envPeriod = 'RUN PERIOD 1', reportingFrequency = 'Hourly', timeSeriesName = 'WaterSystems:FuelOil#1', keyValue = ''\n[openstudio.energyplus.SqlFile] <-2> Tuple: RUN PERIOD 1, Hourly, WaterSystems:FuelOil#1,  not found in data dictionary.\n[openstudio.energyplus.SqlFile] <-2> No time series found\n[openstudio.energyplus.SqlFile] <-2> Making time series for envPeriod = 'RUN PERIOD 1', reportingFrequency = 'Hourly', timeSeriesName = 'WaterSystems:Propane', keyValue = ''\n[openstudio.energyplus.SqlFile] <-2> Tuple: RUN PERIOD 1, Hourly, WaterSystems:Propane,  not found in data dictionary.\n[openstudio.energyplus.SqlFile] <-2> No time series found\n[openstudio.energyplus.SqlFile] <-2> Making time series for envPeriod = 'RUN PERIOD 1', reportingFrequency = 'Hourly', timeSeriesName = 'WaterSystems:ElectricityProduced', keyValue = ''\n[openstudio.energyplus.SqlFile] <-2> Tuple: RUN PERIOD 1, Hourly, WaterSystems:ElectricityProduced,  not found in data dictionary.\n[openstudio.energyplus.SqlFile] <-2> No time series found\n[openstudio.energyplus.SqlFile] <-2> Making time series for envPeriod = 'RUN PERIOD 1', reportingFrequency = 'Hourly', timeSeriesName = 'Refrigeration:Electricity', keyValue = ''\n[openstudio.energyplus.SqlFile] <-2> Tuple: RUN PERIOD 1, Hourly, Refrigeration:Electricity,  not found in data dictionary.\n[openstudio.energyplus.SqlFile] <-2> No time series found\n[openstudio.energyplus.SqlFile] <-2> Making time series for envPeriod = 'RUN PERIOD 1', reportingFrequency = 'Hourly', timeSeriesName = 'Refrigeration:Gas', keyValue = ''\n[openstudio.energyplus.SqlFile] <-2> Tuple: RUN PERIOD 1, Hourly, Refrigeration:Gas,  not found in data dictionary.\n[openstudio.energyplus.SqlFile] <-2> No time series found\n[openstudio.energyplus.SqlFile] <-2> Making time series for envPeriod = 'RUN PERIOD 1', reportingFrequency = 'Hourly', timeSeriesName = 'Refrigeration:DistrictCooling', keyValue = ''\n[openstudio.energyplus.SqlFile] <-2> Tuple: RUN PERIOD 1, Hourly, Refrigeration:DistrictCooling,  not found in data dictionary.\n[openstudio.energyplus.SqlFile] <-2> No time series found\n[openstudio.energyplus.SqlFile] <-2> Making time series for envPeriod = 'RUN PERIOD 1', reportingFrequency = 'Hourly', timeSeriesName = 'Refrigeration:DistrictHeating', keyValue = ''\n[openstudio.energyplus.SqlFile] <-2> Tuple: RUN PERIOD 1, Hourly, Refrigeration:DistrictHeating,  not found in data dictionary.\n[openstudio.energyplus.SqlFile] <-2> No time series found\n[openstudio.energyplus.SqlFile] <-2> Making time series for envPeriod = 'RUN PERIOD 1', reportingFrequency = 'Hourly', timeSeriesName = 'Refrigeration:Water', keyValue = ''\n[openstudio.energyplus.SqlFile] <-2> Tuple: RUN PERIOD 1, Hourly, Refrigeration:Water,  not found in data dictionary.\n[openstudio.energyplus.SqlFile] <-2> No time series found\n[openstudio.energyplus.SqlFile] <-2> Making time series for envPeriod = 'RUN PERIOD 1', reportingFrequency = 'Hourly', timeSeriesName = 'Refrigeration:FuelOil#1', keyValue = ''\n[openstudio.energyplus.SqlFile] <-2> Tuple: RUN PERIOD 1, Hourly, Refrigeration:FuelOil#1,  not found in data dictionary.\n[openstudio.energyplus.SqlFile] <-2> No time series found\n[openstudio.energyplus.SqlFile] <-2> Making time series for envPeriod = 'RUN PERIOD 1', reportingFrequency = 'Hourly', timeSeriesName = 'Refrigeration:Propane', keyValue = ''\n[openstudio.energyplus.SqlFile] <-2> Tuple: RUN PERIOD 1, Hourly, Refrigeration:Propane,  not found in data dictionary.\n[openstudio.energyplus.SqlFile] <-2> No time series found\n[openstudio.energyplus.SqlFile] <-2> Making time series for envPeriod = 'RUN PERIOD 1', reportingFrequency = 'Hourly', timeSeriesName = 'Refrigeration:ElectricityProduced', keyValue = ''\n[openstudio.energyplus.SqlFile] <-2> Tuple: RUN PERIOD 1, Hourly, Refrigeration:ElectricityProduced,  not found in data dictionary.\n[openstudio.energyplus.SqlFile] <-2> No time series found\n[openstudio.energyplus.SqlFile] <-2> Making time series for envPeriod = 'RUN PERIOD 1', reportingFrequency = 'Hourly', timeSeriesName = 'Electricity:Facility', keyValue = ''\n[openstudio.energyplus.SqlFile] <-2> RUN PERIOD 1\n[openstudio.energyplus.SqlFile] <-2> Electricity:Facility\n[openstudio.energyplus.SqlFile] <-2> SQL Query:\nSELECT dt.VariableValue, Time.Month, Time.Day, Time.Hour, Time.Minute, Time.Interval FROM ReportMeterData dt INNER JOIN Time ON Time.timeIndex = dt.TimeIndex WHERE  dt.ReportMeterDataDictionaryIndex=15 AND Time.EnvironmentPeriodIndex = 3Return Code:\n100\n[openstudio.energyplus.SqlFile] <-2> Time series found\n[openstudio.energyplus.SqlFile] <-2> Making time series for envPeriod = 'RUN PERIOD 1', reportingFrequency = 'Hourly', timeSeriesName = 'Gas:Facility', keyValue = ''\n[openstudio.energyplus.SqlFile] <-2> RUN PERIOD 1\n[openstudio.energyplus.SqlFile] <-2> Gas:Facility\n[openstudio.energyplus.SqlFile] <-2> SQL Query:\nSELECT dt.VariableValue, Time.Month, Time.Day, Time.Hour, Time.Minute, Time.Interval FROM ReportMeterData dt INNER JOIN Time ON Time.timeIndex = dt.TimeIndex WHERE  dt.ReportMeterDataDictionaryIndex=357 AND Time.EnvironmentPeriodIndex = 3Return Code:\n100\n[openstudio.energyplus.SqlFile] <-2> Time series found\n[openstudio.energyplus.SqlFile] <-2> Making time series for envPeriod = 'RUN PERIOD 1', reportingFrequency = 'Hourly', timeSeriesName = 'DistrictCooling:Facility', keyValue = ''\n[openstudio.energyplus.SqlFile] <-2> Tuple: RUN PERIOD 1, Hourly, DistrictCooling:Facility,  not found in data dictionary.\n[openstudio.energyplus.SqlFile] <-2> No time series found\n[openstudio.energyplus.SqlFile] <-2> Making time series for envPeriod = 'RUN PERIOD 1', reportingFrequency = 'Hourly', timeSeriesName = 'DistrictHeating:Facility', keyValue = ''\n[openstudio.energyplus.SqlFile] <-2> Tuple: RUN PERIOD 1, Hourly, DistrictHeating:Facility,  not found in data dictionary.\n[openstudio.energyplus.SqlFile] <-2> No time series found\n[openstudio.energyplus.SqlFile] <-2> Making time series for envPeriod = 'RUN PERIOD 1', reportingFrequency = 'Hourly', timeSeriesName = 'Water:Facility', keyValue = ''\n[openstudio.energyplus.SqlFile] <-2> RUN PERIOD 1\n[openstudio.energyplus.SqlFile] <-2> Water:Facility\n[openstudio.energyplus.SqlFile] <-2> SQL Query:\nSELECT dt.VariableValue, Time.Month, Time.Day, Time.Hour, Time.Minute, Time.Interval FROM ReportMeterData dt INNER JOIN Time ON Time.timeIndex = dt.TimeIndex WHERE  dt.ReportMeterDataDictionaryIndex=630 AND Time.EnvironmentPeriodIndex = 3Return Code:\n100\n[openstudio.energyplus.SqlFile] <-2> Time series found\n[openstudio.energyplus.SqlFile] <-2> Making time series for envPeriod = 'RUN PERIOD 1', reportingFrequency = 'Hourly', timeSeriesName = 'FuelOil#1:Facility', keyValue = ''\n[openstudio.energyplus.SqlFile] <-2> Tuple: RUN PERIOD 1, Hourly, FuelOil#1:Facility,  not found in data dictionary.\n[openstudio.energyplus.SqlFile] <-2> No time series found\n[openstudio.energyplus.SqlFile] <-2> Making time series for envPeriod = 'RUN PERIOD 1', reportingFrequency = 'Hourly', timeSeriesName = 'Propane:Facility', keyValue = ''\n[openstudio.energyplus.SqlFile] <-2> Tuple: RUN PERIOD 1, Hourly, Propane:Facility,  not found in data dictionary.\n[openstudio.energyplus.SqlFile] <-2> No time series found\n[openstudio.energyplus.SqlFile] <-2> Making time series for envPeriod = 'RUN PERIOD 1', reportingFrequency = 'Hourly', timeSeriesName = 'ElectricityProduced:Facility', keyValue = ''\n[openstudio.energyplus.SqlFile] <-2> Tuple: RUN PERIOD 1, Hourly, ElectricityProduced:Facility,  not found in data dictionary.\n[openstudio.energyplus.SqlFile] <-2> No time series found\n",
        "step_errors": [],
        "step_files": [],
        "step_info": [
          "Exporting Hourly Heating:Electricity .",
          "Exporting Hourly Heating:Gas .",
          "Exporting Hourly Cooling:Electricity .",
          "Exporting Hourly InteriorLights:Electricity .",
          "Exporting Hourly ExteriorLights:Electricity .",
          "Exporting Hourly InteriorEquipment:Electricity .",
          "Exporting Hourly InteriorEquipment:Gas .",
          "Exporting Hourly Fans:Electricity .",
          "Exporting Hourly Pumps:Electricity .",
          "Exporting Hourly WaterSystems:Electricity .",
          "Exporting Hourly WaterSystems:Gas .",
          "Exporting Hourly WaterSystems:Water .",
          "Exporting Hourly Electricity:Facility .",
          "Exporting Hourly Gas:Facility .",
          "Exporting Hourly Water:Facility ."
        ],
        "step_result": "Success",
        "step_values": [
          {
            "name": "reporting_frequency",
            "value": "Hourly"
          },
          {
            "name": "include_enduse_subcategories",
            "value": false
          },
          {
            "name": "output_variables",
            "value": "\"\""
          }
        ],
        "step_warnings": []
      }
    },
    {
      "arguments": {},
      "description": "Removes a significant portion of the saved results from each run, helping to alleviate memory problems.",
      "measure_dir_name": "ServerDirectoryCleanup",
      "name": "server_directory_cleanup",
      "result": {
        "completed_at": "20190208T214954Z",
        "measure_class_name": "ServerDirectoryCleanup",
        "measure_display_name": "Server Directory Cleanup",
        "measure_name": "server_directory_cleanup",
        "measure_taxonomy": "Calibration",
        "measure_type": "ReportingMeasure",
        "measure_uid": "ec7d04ad-0b7b-495b-825a-e1b6d28d1d3f",
        "measure_version_id": "9d0335bf-8823-468f-971e-3a53fe35248d",
        "measure_version_modified": "20171215T033256Z",
        "measure_xml_checksum": "5F1EDF75",
        "started_at": "20190208T214954Z",
        "stderr": "",
        "stdout": "[OpenStudio.Measure] <0> OSArgumentVector is deprecated, use OpenStudio::Measure::OSArgumentVector instead.\n",
        "step_errors": [],
        "step_files": [],
        "step_final_condition": "The following files were in the local run directory following the execution of this measure: started.job, .., ., in.epw, eplustbl.htm, eplusout.rdd, 002_BuildingCharacteristicsReport, 000_ResidentialSimulationControls, 002_SimulationOutputReport, stdout-expandobject, measures.osw, eplusout.mtd, 002_TimeseriesCSVExport, epluszsz.csv, eplusout.mtr, eplusout.err, 004_TimeseriesCSVExport, enduse_timeseries.csv, eplusout.end, 001_BuildExistingModel, in.idf, 002_ServerDirectoryCleanup, 005_ServerDirectoryCleanup, 003_SimulationOutputReport, measure_attributes.json, run.log, sqlite.err, stdout-energyplus.",
        "step_info": [
          "Deleted ./../eplusout.sql from the run directory.",
          "Deleted ./../eplusout.audit from the run directory.",
          "Deleted ./../in.osm from the run directory.",
          "Deleted ./../../in.osm from the run directory.",
          "Deleted ./../eplusout.bnd from the run directory.",
          "Deleted ./../eplusout.eio from the run directory.",
          "Deleted ./../eplusout.shd from the run directory.",
          "Deleted ./../eplusout.mdd from the run directory.",
          "Deleted ./../eplusout.eso from the run directory.",
          "Deleted ./../pre-preprocess.idf from the run directory."
        ],
        "step_initial_condition": "The following files were in the local run directory prior to the execution of this measure: eplusout.audit, eplusout.eso, started.job, .., ., eplusout.mdd, in.epw, eplustbl.htm, eplusout.rdd, 002_BuildingCharacteristicsReport, 000_ResidentialSimulationControls, 002_SimulationOutputReport, eplusout.bnd, stdout-expandobject, measures.osw, eplusout.mtd, 002_TimeseriesCSVExport, epluszsz.csv, eplusout.mtr, pre-preprocess.idf, eplusout.err, 004_TimeseriesCSVExport, enduse_timeseries.csv, eplusout.shd, eplusout.end, 001_BuildExistingModel, in.idf, 002_ServerDirectoryCleanup, eplusout.eio, 005_ServerDirectoryCleanup, 003_SimulationOutputReport, measure_attributes.json, run.log, in.osm, sqlite.err, eplusout.sql, stdout-energyplus.",
        "step_result": "Success",
        "step_values": [],
        "step_warnings": []
      }
    }
  ],
  "updated_at": "20190208T214954Z",
  "weather_file": "Placeholder.epw"
}