{
   "completed_at" : "20200130T181106Z",
   "completed_status" : "Success",
   "current_step" : 30,
   "eplusout_err" : "Program Version,EnergyPlus, Version 9.2.0-921312fa1d, YMD=2020.01.30 11:04,\n   ************* Beginning Zone Sizing Calculations\n   ************* Note that the following warning(s) may/will occur if you have not enclosed your zone completely.\n   ** Warning ** Entered Zone Volumes differ from calculated zone volume(s).\n   **   ~~~   ** ...use Output:Diagnostics,DisplayExtraWarnings; to show more details on individual zones.\n   ** Warning ** CalculateZoneVolume: 1 zone is not fully enclosed. For more details use:  Output:Diagnostics,DisplayExtrawarnings; \n   ** Warning ** CheckUsedConstructions: There are 1 nominally unused constructions in input.\n   **   ~~~   ** For explicit details on each unused construction, use Output:Diagnostics,DisplayExtraWarnings;\n   ************* Beginning System Sizing Calculations\n   ** Warning ** GetDXCoils: Coil:Cooling:DX:SingleSpeed=\"RES ROOM AC COOLING COIL\" curve values\n   **   ~~~   ** ... Energy Input Ratio Function of Flow Fraction Curve Name = ROOMAC-EIR-FFF output is not equal to 1.0 (+ or - 10%) at rated conditions.\n   **   ~~~   ** ... Curve output at rated conditions = 1.154\n   ** Warning ** GetDXCoils: Coil:Cooling:DX:SingleSpeed=\"RES ROOM AC|UNIT 10 COOLING COIL\" curve values\n   **   ~~~   ** ... Energy Input Ratio Function of Flow Fraction Curve Name = ROOMAC-EIR-FFF 9 output is not equal to 1.0 (+ or - 10%) at rated conditions.\n   **   ~~~   ** ... Curve output at rated conditions = 1.154\n   ** Warning ** GetDXCoils: Coil:Cooling:DX:SingleSpeed=\"RES ROOM AC|UNIT 11 COOLING COIL\" curve values\n   **   ~~~   ** ... Energy Input Ratio Function of Flow Fraction Curve Name = ROOMAC-EIR-FFF 10 output is not equal to 1.0 (+ or - 10%) at rated conditions.\n   **   ~~~   ** ... Curve output at rated conditions = 1.154\n   ** Warning ** GetDXCoils: Coil:Cooling:DX:SingleSpeed=\"RES ROOM AC|UNIT 12 COOLING COIL\" curve values\n   **   ~~~   ** ... Energy Input Ratio Function of Flow Fraction Curve Name = ROOMAC-EIR-FFF 11 output is not equal to 1.0 (+ or - 10%) at rated conditions.\n   **   ~~~   ** ... Curve output at rated conditions = 1.154\n   ** Warning ** GetDXCoils: Coil:Cooling:DX:SingleSpeed=\"RES ROOM AC|UNIT 13 COOLING COIL\" curve values\n   **   ~~~   ** ... Energy Input Ratio Function of Flow Fraction Curve Name = ROOMAC-EIR-FFF 12 output is not equal to 1.0 (+ or - 10%) at rated conditions.\n   **   ~~~   ** ... Curve output at rated conditions = 1.154\n   ** Warning ** GetDXCoils: Coil:Cooling:DX:SingleSpeed=\"RES ROOM AC|UNIT 14 COOLING COIL\" curve values\n   **   ~~~   ** ... Energy Input Ratio Function of Flow Fraction Curve Name = ROOMAC-EIR-FFF 13 output is not equal to 1.0 (+ or - 10%) at rated conditions.\n   **   ~~~   ** ... Curve output at rated conditions = 1.154\n   ** Warning ** GetDXCoils: Coil:Cooling:DX:SingleSpeed=\"RES ROOM AC|UNIT 15 COOLING COIL\" curve values\n   **   ~~~   ** ... Energy Input Ratio Function of Flow Fraction Curve Name = ROOMAC-EIR-FFF 14 output is not equal to 1.0 (+ or - 10%) at rated conditions.\n   **   ~~~   ** ... Curve output at rated conditions = 1.154\n   ** Warning ** GetDXCoils: Coil:Cooling:DX:SingleSpeed=\"RES ROOM AC|UNIT 16 COOLING COIL\" curve values\n   **   ~~~   ** ... Energy Input Ratio Function of Flow Fraction Curve Name = ROOMAC-EIR-FFF 15 output is not equal to 1.0 (+ or - 10%) at rated conditions.\n   **   ~~~   ** ... Curve output at rated conditions = 1.154\n   ** Warning ** GetDXCoils: Coil:Cooling:DX:SingleSpeed=\"RES ROOM AC|UNIT 17 COOLING COIL\" curve values\n   **   ~~~   ** ... Energy Input Ratio Function of Flow Fraction Curve Name = ROOMAC-EIR-FFF 16 output is not equal to 1.0 (+ or - 10%) at rated conditions.\n   **   ~~~   ** ... Curve output at rated conditions = 1.154\n   ** Warning ** GetDXCoils: Coil:Cooling:DX:SingleSpeed=\"RES ROOM AC|UNIT 18 COOLING COIL\" curve values\n   **   ~~~   ** ... Energy Input Ratio Function of Flow Fraction Curve Name = ROOMAC-EIR-FFF 17 output is not equal to 1.0 (+ or - 10%) at rated conditions.\n   **   ~~~   ** ... Curve output at rated conditions = 1.154\n   ** Warning ** GetDXCoils: Coil:Cooling:DX:SingleSpeed=\"RES ROOM AC|UNIT 19 COOLING COIL\" curve values\n   **   ~~~   ** ... Energy Input Ratio Function of Flow Fraction Curve Name = ROOMAC-EIR-FFF 18 output is not equal to 1.0 (+ or - 10%) at rated conditions.\n   **   ~~~   ** ... Curve output at rated conditions = 1.154\n   ** Warning ** GetDXCoils: Coil:Cooling:DX:SingleSpeed=\"RES ROOM AC|UNIT 2 COOLING COIL\" curve values\n   **   ~~~   ** ... Energy Input Ratio Function of Flow Fraction Curve Name = ROOMAC-EIR-FFF 1 output is not equal to 1.0 (+ or - 10%) at rated conditions.\n   **   ~~~   ** ... Curve output at rated conditions = 1.154\n   ** Warning ** GetDXCoils: Coil:Cooling:DX:SingleSpeed=\"RES ROOM AC|UNIT 20 COOLING COIL\" curve values\n   **   ~~~   ** ... Energy Input Ratio Function of Flow Fraction Curve Name = ROOMAC-EIR-FFF 19 output is not equal to 1.0 (+ or - 10%) at rated conditions.\n   **   ~~~   ** ... Curve output at rated conditions = 1.154\n   ** Warning ** GetDXCoils: Coil:Cooling:DX:SingleSpeed=\"RES ROOM AC|UNIT 3 COOLING COIL\" curve values\n   **   ~~~   ** ... Energy Input Ratio Function of Flow Fraction Curve Name = ROOMAC-EIR-FFF 2 output is not equal to 1.0 (+ or - 10%) at rated conditions.\n   **   ~~~   ** ... Curve output at rated conditions = 1.154\n   ** Warning ** GetDXCoils: Coil:Cooling:DX:SingleSpeed=\"RES ROOM AC|UNIT 4 COOLING COIL\" curve values\n   **   ~~~   ** ... Energy Input Ratio Function of Flow Fraction Curve Name = ROOMAC-EIR-FFF 3 output is not equal to 1.0 (+ or - 10%) at rated conditions.\n   **   ~~~   ** ... Curve output at rated conditions = 1.154\n   ** Warning ** GetDXCoils: Coil:Cooling:DX:SingleSpeed=\"RES ROOM AC|UNIT 5 COOLING COIL\" curve values\n   **   ~~~   ** ... Energy Input Ratio Function of Flow Fraction Curve Name = ROOMAC-EIR-FFF 4 output is not equal to 1.0 (+ or - 10%) at rated conditions.\n   **   ~~~   ** ... Curve output at rated conditions = 1.154\n   ** Warning ** GetDXCoils: Coil:Cooling:DX:SingleSpeed=\"RES ROOM AC|UNIT 6 COOLING COIL\" curve values\n   **   ~~~   ** ... Energy Input Ratio Function of Flow Fraction Curve Name = ROOMAC-EIR-FFF 5 output is not equal to 1.0 (+ or - 10%) at rated conditions.\n   **   ~~~   ** ... Curve output at rated conditions = 1.154\n   ** Warning ** GetDXCoils: Coil:Cooling:DX:SingleSpeed=\"RES ROOM AC|UNIT 7 COOLING COIL\" curve values\n   **   ~~~   ** ... Energy Input Ratio Function of Flow Fraction Curve Name = ROOMAC-EIR-FFF 6 output is not equal to 1.0 (+ or - 10%) at rated conditions.\n   **   ~~~   ** ... Curve output at rated conditions = 1.154\n   ** Warning ** GetDXCoils: Coil:Cooling:DX:SingleSpeed=\"RES ROOM AC|UNIT 8 COOLING COIL\" curve values\n   **   ~~~   ** ... Energy Input Ratio Function of Flow Fraction Curve Name = ROOMAC-EIR-FFF 7 output is not equal to 1.0 (+ or - 10%) at rated conditions.\n   **   ~~~   ** ... Curve output at rated conditions = 1.154\n   ** Warning ** GetDXCoils: Coil:Cooling:DX:SingleSpeed=\"RES ROOM AC|UNIT 9 COOLING COIL\" curve values\n   **   ~~~   ** ... Energy Input Ratio Function of Flow Fraction Curve Name = ROOMAC-EIR-FFF 8 output is not equal to 1.0 (+ or - 10%) at rated conditions.\n   **   ~~~   ** ... Curve output at rated conditions = 1.154\n   ************* Beginning Plant Sizing Calculations\n   ** Warning ** Check input. Pump nominal power or motor efficiency is set to 0, for pump=PUMP VARIABLE SPEED 1\n   ** Warning ** Check input. Pump nominal power or motor efficiency is set to 0, for pump=PUMP VARIABLE SPEED 10\n   ** Warning ** Check input. Pump nominal power or motor efficiency is set to 0, for pump=PUMP VARIABLE SPEED 11\n   ** Warning ** Check input. Pump nominal power or motor efficiency is set to 0, for pump=PUMP VARIABLE SPEED 12\n   ** Warning ** Check input. Pump nominal power or motor efficiency is set to 0, for pump=PUMP VARIABLE SPEED 13\n   ** Warning ** Check input. Pump nominal power or motor efficiency is set to 0, for pump=PUMP VARIABLE SPEED 14\n   ** Warning ** Check input. Pump nominal power or motor efficiency is set to 0, for pump=PUMP VARIABLE SPEED 15\n   ** Warning ** Check input. Pump nominal power or motor efficiency is set to 0, for pump=PUMP VARIABLE SPEED 16\n   ** Warning ** Check input. Pump nominal power or motor efficiency is set to 0, for pump=PUMP VARIABLE SPEED 17\n   ** Warning ** Check input. Pump nominal power or motor efficiency is set to 0, for pump=PUMP VARIABLE SPEED 18\n   ** Warning ** Check input. Pump nominal power or motor efficiency is set to 0, for pump=PUMP VARIABLE SPEED 19\n   ** Warning ** Check input. Pump nominal power or motor efficiency is set to 0, for pump=PUMP VARIABLE SPEED 2\n   ** Warning ** Check input. Pump nominal power or motor efficiency is set to 0, for pump=PUMP VARIABLE SPEED 20\n   ** Warning ** Check input. Pump nominal power or motor efficiency is set to 0, for pump=PUMP VARIABLE SPEED 3\n   ** Warning ** Check input. Pump nominal power or motor efficiency is set to 0, for pump=PUMP VARIABLE SPEED 4\n   ** Warning ** Check input. Pump nominal power or motor efficiency is set to 0, for pump=PUMP VARIABLE SPEED 5\n   ** Warning ** Check input. Pump nominal power or motor efficiency is set to 0, for pump=PUMP VARIABLE SPEED 6\n   ** Warning ** Check input. Pump nominal power or motor efficiency is set to 0, for pump=PUMP VARIABLE SPEED 7\n   ** Warning ** Check input. Pump nominal power or motor efficiency is set to 0, for pump=PUMP VARIABLE SPEED 8\n   ** Warning ** Check input. Pump nominal power or motor efficiency is set to 0, for pump=PUMP VARIABLE SPEED 9\n   ** Warning ** Output:Meter: invalid Key Name=\"DISTRICTCOOLING:FACILITY\" - not found.\n   ** Warning ** Output:Meter: invalid Key Name=\"DISTRICTHEATING:FACILITY\" - not found.\n   ** Warning ** Output:Meter:MeterFileOnly requested for \"Electricity:Facility\" (TimeStep), already on \"Output:Meter\". Will report to both eplusout.eso and eplusout.mtr\n   ************* Testing Individual Branch Integrity\n   ************* All Branches passed integrity testing\n   ************* Testing Individual Supply Air Path Integrity\n   ************* All Supply Air Paths passed integrity testing\n   ************* Testing Individual Return Air Path Integrity\n   ************* All Return Air Paths passed integrity testing\n   ************* No node connection errors were found.\n   ************* Beginning Simulation\n   ** Warning ** SimHVAC: Maximum iterations (20) exceeded for all HVAC loops, at RUN PERIOD 1, 01/01 04:20 - 04:30\n   **   ~~~   ** The solution for one or more of the Air Loop HVAC systems did not appear to converge\n   **   ~~~   ** ...use Output:Diagnostics,DisplayExtraWarnings; to show more details on each max iteration exceeded.\n   ** Warning ** SimHVAC: Maximum iterations (20) exceeded for all HVAC loops, at RUN PERIOD 1, 01/01 04:40 - 04:50\n   **   ~~~   ** The solution for one or more of the Air Loop HVAC systems did not appear to converge\n   ** Warning ** SimHVAC: Maximum iterations (20) exceeded for all HVAC loops, at RUN PERIOD 1, 01/01 13:33 - 13:37\n   **   ~~~   ** The solution for one or more of the Air Loop HVAC systems did not appear to converge\n   ** Warning ** SimHVAC: Maximum iterations (20) exceeded for all HVAC loops, at RUN PERIOD 1, 01/01 13:37 - 13:40\n   **   ~~~   ** The solution for one or more of the Air Loop HVAC systems did not appear to converge\n   ** Warning ** SimHVAC: Maximum iterations (20) exceeded for all HVAC loops, at RUN PERIOD 1, 01/01 13:45 - 13:50\n   **   ~~~   ** The solution for one or more of the Air Loop HVAC systems did not appear to converge\n   ** Warning ** SimHVAC: Maximum iterations (20) exceeded for all HVAC loops, at RUN PERIOD 1, 01/01 17:00 - 17:10\n   **   ~~~   ** The solution for one or more of the Air Loop HVAC systems did not appear to converge\n   ** Warning ** SimHVAC: Maximum iterations (20) exceeded for all HVAC loops, at RUN PERIOD 1, 01/01 17:00 - 17:05\n   **   ~~~   ** The solution for one or more of the Air Loop HVAC systems did not appear to converge\n   ** Warning ** SimHVAC: Maximum iterations (20) exceeded for all HVAC loops, at RUN PERIOD 1, 01/01 21:50 - 22:00\n   **   ~~~   ** The solution for one or more of the Air Loop HVAC systems did not appear to converge\n   ** Warning ** SimHVAC: Maximum iterations (20) exceeded for all HVAC loops, at RUN PERIOD 1, 01/02 11:30 - 11:40\n   **   ~~~   ** The solution for one or more of the Air Loop HVAC systems did not appear to converge\n   ** Warning ** SimHVAC: Maximum iterations (20) exceeded for all HVAC loops, at RUN PERIOD 1, 01/02 12:30 - 12:40\n   **   ~~~   ** The solution for one or more of the Air Loop HVAC systems did not appear to converge\n   ** Warning ** SimHVAC: Maximum iterations (20) exceeded for all HVAC loops, at RUN PERIOD 1, 01/02 14:30 - 14:40\n   **   ~~~   ** The solution for one or more of the Air Loop HVAC systems did not appear to converge\n   ** Warning ** SimHVAC: Maximum iterations (20) exceeded for all HVAC loops, at RUN PERIOD 1, 01/03 01:30 - 01:40\n   **   ~~~   ** The solution for one or more of the Air Loop HVAC systems did not appear to converge\n   ** Warning ** SimHVAC: Maximum iterations (20) exceeded for all HVAC loops, at RUN PERIOD 1, 01/03 01:40 - 01:50\n   **   ~~~   ** The solution for one or more of the Air Loop HVAC systems did not appear to converge\n   ** Warning ** SimHVAC: Maximum iterations (20) exceeded for all HVAC loops, at RUN PERIOD 1, 01/03 02:00 - 02:10\n   **   ~~~   ** The solution for one or more of the Air Loop HVAC systems did not appear to converge\n   ** Warning ** CalcDoe2DXCoil: Coil:Cooling:DX:SingleSpeed \"RES ROOM AC|UNIT 3 COOLING COIL\" - Air-cooled condenser inlet dry-bulb temperature below 0 C. Outdoor dry-bulb temperature = -0.18\n   **   ~~~   **  ... Occurrence info = RUN PERIOD 1, 01/05 05:00 - 05:10\n   **   ~~~   ** ... Operation at low ambient temperatures may require special performance curves.\n   ** Warning ** CalcDoe2DXCoil: Coil:Cooling:DX:SingleSpeed \"RES ROOM AC|UNIT 4 COOLING COIL\" - Air-cooled condenser inlet dry-bulb temperature below 0 C. Outdoor dry-bulb temperature = -0.18\n   **   ~~~   **  ... Occurrence info = RUN PERIOD 1, 01/05 05:00 - 05:10\n   **   ~~~   ** ... Operation at low ambient temperatures may require special performance curves.\n   ** Warning ** CalcDoe2DXCoil: Coil:Cooling:DX:SingleSpeed \"RES ROOM AC|UNIT 5 COOLING COIL\" - Air-cooled condenser inlet dry-bulb temperature below 0 C. Outdoor dry-bulb temperature = -0.18\n   **   ~~~   **  ... Occurrence info = RUN PERIOD 1, 01/05 05:00 - 05:10\n   **   ~~~   ** ... Operation at low ambient temperatures may require special performance curves.\n   ** Warning ** CalcDoe2DXCoil: Coil:Cooling:DX:SingleSpeed \"RES ROOM AC|UNIT 6 COOLING COIL\" - Air-cooled condenser inlet dry-bulb temperature below 0 C. Outdoor dry-bulb temperature = -0.18\n   **   ~~~   **  ... Occurrence info = RUN PERIOD 1, 01/05 05:00 - 05:10\n   **   ~~~   ** ... Operation at low ambient temperatures may require special performance curves.\n   ** Warning ** CalcDoe2DXCoil: Coil:Cooling:DX:SingleSpeed \"RES ROOM AC|UNIT 7 COOLING COIL\" - Air-cooled condenser inlet dry-bulb temperature below 0 C. Outdoor dry-bulb temperature = -0.18\n   **   ~~~   **  ... Occurrence info = RUN PERIOD 1, 01/05 05:00 - 05:10\n   **   ~~~   ** ... Operation at low ambient temperatures may require special performance curves.\n   ** Warning ** CalcDoe2DXCoil: Coil:Cooling:DX:SingleSpeed \"RES ROOM AC|UNIT 8 COOLING COIL\" - Air-cooled condenser inlet dry-bulb temperature below 0 C. Outdoor dry-bulb temperature = -0.18\n   **   ~~~   **  ... Occurrence info = RUN PERIOD 1, 01/05 05:00 - 05:10\n   **   ~~~   ** ... Operation at low ambient temperatures may require special performance curves.\n   ** Warning ** CalcDoe2DXCoil: Coil:Cooling:DX:SingleSpeed \"RES ROOM AC COOLING COIL\" - Air-cooled condenser inlet dry-bulb temperature below 0 C. Outdoor dry-bulb temperature = -0.55\n   **   ~~~   **  ... Occurrence info = RUN PERIOD 1, 01/05 05:28 - 05:29\n   **   ~~~   ** ... Operation at low ambient temperatures may require special performance curves.\n   ** Warning ** CalcDoe2DXCoil: Coil:Cooling:DX:SingleSpeed \"RES ROOM AC|UNIT 10 COOLING COIL\" - Air-cooled condenser inlet dry-bulb temperature below 0 C. Outdoor dry-bulb temperature = -0.55\n   **   ~~~   **  ... Occurrence info = RUN PERIOD 1, 01/05 05:28 - 05:29\n   **   ~~~   ** ... Operation at low ambient temperatures may require special performance curves.\n   ** Warning ** CalcDoe2DXCoil: Coil:Cooling:DX:SingleSpeed \"RES ROOM AC|UNIT 2 COOLING COIL\" - Air-cooled condenser inlet dry-bulb temperature below 0 C. Outdoor dry-bulb temperature = -0.55\n   **   ~~~   **  ... Occurrence info = RUN PERIOD 1, 01/05 05:28 - 05:29\n   **   ~~~   ** ... Operation at low ambient temperatures may require special performance curves.\n   ** Warning ** CalcDoe2DXCoil: Coil:Cooling:DX:SingleSpeed \"RES ROOM AC|UNIT 9 COOLING COIL\" - Air-cooled condenser inlet dry-bulb temperature below 0 C. Outdoor dry-bulb temperature = -0.55\n   **   ~~~   **  ... Occurrence info = RUN PERIOD 1, 01/05 05:28 - 05:29\n   **   ~~~   ** ... Operation at low ambient temperatures may require special performance curves.\n   ** Warning ** CalcDoe2DXCoil: Coil:Cooling:DX:SingleSpeed \"RES ROOM AC|UNIT 13 COOLING COIL\" - Air-cooled condenser inlet dry-bulb temperature below 0 C. Outdoor dry-bulb temperature = -0.40\n   **   ~~~   **  ... Occurrence info = RUN PERIOD 1, 01/06 11:03 - 11:04\n   **   ~~~   ** ... Operation at low ambient temperatures may require special performance curves.\n   ** Warning ** CalcDoe2DXCoil: Coil:Cooling:DX:SingleSpeed \"RES ROOM AC|UNIT 14 COOLING COIL\" - Air-cooled condenser inlet dry-bulb temperature below 0 C. Outdoor dry-bulb temperature = -0.40\n   **   ~~~   **  ... Occurrence info = RUN PERIOD 1, 01/06 11:03 - 11:04\n   **   ~~~   ** ... Operation at low ambient temperatures may require special performance curves.\n   ** Warning ** CalcDoe2DXCoil: Coil:Cooling:DX:SingleSpeed \"RES ROOM AC|UNIT 15 COOLING COIL\" - Air-cooled condenser inlet dry-bulb temperature below 0 C. Outdoor dry-bulb temperature = -0.40\n   **   ~~~   **  ... Occurrence info = RUN PERIOD 1, 01/06 11:03 - 11:04\n   **   ~~~   ** ... Operation at low ambient temperatures may require special performance curves.\n   ** Warning ** CalcDoe2DXCoil: Coil:Cooling:DX:SingleSpeed \"RES ROOM AC|UNIT 16 COOLING COIL\" - Air-cooled condenser inlet dry-bulb temperature below 0 C. Outdoor dry-bulb temperature = -0.40\n   **   ~~~   **  ... Occurrence info = RUN PERIOD 1, 01/06 11:03 - 11:04\n   **   ~~~   ** ... Operation at low ambient temperatures may require special performance curves.\n   ** Warning ** CalcDoe2DXCoil: Coil:Cooling:DX:SingleSpeed \"RES ROOM AC|UNIT 17 COOLING COIL\" - Air-cooled condenser inlet dry-bulb temperature below 0 C. Outdoor dry-bulb temperature = -0.40\n   **   ~~~   **  ... Occurrence info = RUN PERIOD 1, 01/06 11:03 - 11:04\n   **   ~~~   ** ... Operation at low ambient temperatures may require special performance curves.\n   ** Warning ** CalcDoe2DXCoil: Coil:Cooling:DX:SingleSpeed \"RES ROOM AC|UNIT 18 COOLING COIL\" - Air-cooled condenser inlet dry-bulb temperature below 0 C. Outdoor dry-bulb temperature = -0.40\n   **   ~~~   **  ... Occurrence info = RUN PERIOD 1, 01/06 11:03 - 11:04\n   **   ~~~   ** ... Operation at low ambient temperatures may require special performance curves.\n   ** Warning ** CalcDoe2DXCoil: Coil:Cooling:DX:SingleSpeed \"RES ROOM AC|UNIT 12 COOLING COIL\" - Air-cooled condenser inlet dry-bulb temperature below 0 C. Outdoor dry-bulb temperature = -0.40\n   **   ~~~   **  ... Occurrence info = RUN PERIOD 1, 01/06 11:04 - 11:05\n   **   ~~~   ** ... Operation at low ambient temperatures may require special performance curves.\n   ** Warning ** CalcDoe2DXCoil: Coil:Cooling:DX:SingleSpeed \"RES ROOM AC|UNIT 19 COOLING COIL\" - Air-cooled condenser inlet dry-bulb temperature below 0 C. Outdoor dry-bulb temperature = -0.40\n   **   ~~~   **  ... Occurrence info = RUN PERIOD 1, 01/06 11:04 - 11:05\n   **   ~~~   ** ... Operation at low ambient temperatures may require special performance curves.\n   ** Warning ** CalcDoe2DXCoil: Coil:Cooling:DX:SingleSpeed \"RES ROOM AC|UNIT 20 COOLING COIL\" - Air-cooled condenser inlet dry-bulb temperature below 0 C. Outdoor dry-bulb temperature = -0.40\n   **   ~~~   **  ... Occurrence info = RUN PERIOD 1, 01/06 11:04 - 11:05\n   **   ~~~   ** ... Operation at low ambient temperatures may require special performance curves.\n   ** Warning ** CalcDoe2DXCoil: Coil:Cooling:DX:SingleSpeed \"RES ROOM AC|UNIT 11 COOLING COIL\" - Air-cooled condenser inlet dry-bulb temperature below 0 C. Outdoor dry-bulb temperature = -0.40\n   **   ~~~   **  ... Occurrence info = RUN PERIOD 1, 01/06 11:05 - 11:06\n   **   ~~~   ** ... Operation at low ambient temperatures may require special performance curves.\n   ** Warning ** The resource referenced by LifeCycleCost:UsePriceEscalation= \"U.S. AVG  COMMERCIAL-ELECTRICITY\" has no energy cost. \n   **   ~~~   ** ... It is likely that the wrong resource is used. The resource should match the meter used in Utility:Tariff.\n   ** Warning ** The resource referenced by LifeCycleCost:UsePriceEscalation= \"U.S. AVG  COMMERCIAL-DISTILLATE OIL\" has no energy cost. \n   **   ~~~   ** ... It is likely that the wrong resource is used. The resource should match the meter used in Utility:Tariff.\n   ** Warning ** The resource referenced by LifeCycleCost:UsePriceEscalation= \"U.S. AVG  COMMERCIAL-RESIDUAL OIL\" has no energy cost. \n   **   ~~~   ** ... It is likely that the wrong resource is used. The resource should match the meter used in Utility:Tariff.\n   ** Warning ** The resource referenced by LifeCycleCost:UsePriceEscalation= \"U.S. AVG  COMMERCIAL-NATURAL GAS\" has no energy cost. \n   **   ~~~   ** ... It is likely that the wrong resource is used. The resource should match the meter used in Utility:Tariff.\n   ** Warning ** The resource referenced by LifeCycleCost:UsePriceEscalation= \"U.S. AVG  COMMERCIAL-COAL\" has no energy cost. \n   **   ~~~   ** ... It is likely that the wrong resource is used. The resource should match the meter used in Utility:Tariff.\n   ************* Simulation Error Summary *************\n   ************* There are 2 unused schedules in input.\n   ************* There are 42 unused week schedules in input.\n   ************* There are 26 unused day schedules in input.\n   ************* Use Output:Diagnostics,DisplayUnusedSchedules; to see them.\n   *************\n   ************* ===== Recurring Error Summary =====\n   ************* The following recurring error messages occurred.\n   *************\n   *************  ** Warning ** SimHVAC: Exceeding Maximum iterations for all HVAC loops, during RUN PERIOD 1 continues\n   *************  **   ~~~   **   This error occurred 1211 total times;\n   *************  **   ~~~   **   during Warmup 0 times;\n   *************  **   ~~~   **   during Sizing 0 times.\n   *************\n   *************  ** Warning ** CalcDoe2DXCoil: Coil:Cooling:DX:SingleSpeed=\"RES ROOM AC|UNIT 3 COOLING COIL\" - Low condenser dry-bulb temperature error continues...\n   *************  **   ~~~   **   This error occurred 477 total times;\n   *************  **   ~~~   **   during Warmup 0 times;\n   *************  **   ~~~   **   during Sizing 0 times.\n   *************  **   ~~~   **   Max=-3.333333E-002 [C]  Min=-5. [C]\n   *************\n   *************  ** Warning ** CalcDoe2DXCoil: Coil:Cooling:DX:SingleSpeed=\"RES ROOM AC|UNIT 4 COOLING COIL\" - Low condenser dry-bulb temperature error continues...\n   *************  **   ~~~   **   This error occurred 479 total times;\n   *************  **   ~~~   **   during Warmup 0 times;\n   *************  **   ~~~   **   during Sizing 0 times.\n   *************  **   ~~~   **   Max=-3.333333E-002 [C]  Min=-5. [C]\n   *************\n   *************  ** Warning ** CalcDoe2DXCoil: Coil:Cooling:DX:SingleSpeed=\"RES ROOM AC|UNIT 5 COOLING COIL\" - Low condenser dry-bulb temperature error continues...\n   *************  **   ~~~   **   This error occurred 668 total times;\n   *************  **   ~~~   **   during Warmup 0 times;\n   *************  **   ~~~   **   during Sizing 0 times.\n   *************  **   ~~~   **   Max=-3.333333E-002 [C]  Min=-5. [C]\n   *************\n   *************  ** Warning ** CalcDoe2DXCoil: Coil:Cooling:DX:SingleSpeed=\"RES ROOM AC|UNIT 6 COOLING COIL\" - Low condenser dry-bulb temperature error continues...\n   *************  **   ~~~   **   This error occurred 662 total times;\n   *************  **   ~~~   **   during Warmup 0 times;\n   *************  **   ~~~   **   during Sizing 0 times.\n   *************  **   ~~~   **   Max=-3.333333E-002 [C]  Min=-5. [C]\n   *************\n   *************  ** Warning ** CalcDoe2DXCoil: Coil:Cooling:DX:SingleSpeed=\"RES ROOM AC|UNIT 7 COOLING COIL\" - Low condenser dry-bulb temperature error continues...\n   *************  **   ~~~   **   This error occurred 489 total times;\n   *************  **   ~~~   **   during Warmup 0 times;\n   *************  **   ~~~   **   during Sizing 0 times.\n   *************  **   ~~~   **   Max=-3.333333E-002 [C]  Min=-5. [C]\n   *************\n   *************  ** Warning ** CalcDoe2DXCoil: Coil:Cooling:DX:SingleSpeed=\"RES ROOM AC|UNIT 8 COOLING COIL\" - Low condenser dry-bulb temperature error continues...\n   *************  **   ~~~   **   This error occurred 488 total times;\n   *************  **   ~~~   **   during Warmup 0 times;\n   *************  **   ~~~   **   during Sizing 0 times.\n   *************  **   ~~~   **   Max=-3.333333E-002 [C]  Min=-5. [C]\n   *************\n   *************  ** Warning ** CalcDoe2DXCoil: Coil:Cooling:DX:SingleSpeed=\"RES ROOM AC COOLING COIL\" - Low condenser dry-bulb temperature error continues...\n   *************  **   ~~~   **   This error occurred 74 total times;\n   *************  **   ~~~   **   during Warmup 0 times;\n   *************  **   ~~~   **   during Sizing 0 times.\n   *************  **   ~~~   **   Max=-0.2 [C]  Min=-5. [C]\n   *************\n   *************  ** Warning ** CalcDoe2DXCoil: Coil:Cooling:DX:SingleSpeed=\"RES ROOM AC|UNIT 10 COOLING COIL\" - Low condenser dry-bulb temperature error continues...\n   *************  **   ~~~   **   This error occurred 74 total times;\n   *************  **   ~~~   **   during Warmup 0 times;\n   *************  **   ~~~   **   during Sizing 0 times.\n   *************  **   ~~~   **   Max=-0.2 [C]  Min=-5. [C]\n   *************\n   *************  ** Warning ** CalcDoe2DXCoil: Coil:Cooling:DX:SingleSpeed=\"RES ROOM AC|UNIT 2 COOLING COIL\" - Low condenser dry-bulb temperature error continues...\n   *************  **   ~~~   **   This error occurred 73 total times;\n   *************  **   ~~~   **   during Warmup 0 times;\n   *************  **   ~~~   **   during Sizing 0 times.\n   *************  **   ~~~   **   Max=-0.2 [C]  Min=-5. [C]\n   *************\n   *************  ** Warning ** CalcDoe2DXCoil: Coil:Cooling:DX:SingleSpeed=\"RES ROOM AC|UNIT 9 COOLING COIL\" - Low condenser dry-bulb temperature error continues...\n   *************  **   ~~~   **   This error occurred 74 total times;\n   *************  **   ~~~   **   during Warmup 0 times;\n   *************  **   ~~~   **   during Sizing 0 times.\n   *************  **   ~~~   **   Max=-0.2 [C]  Min=-5. [C]\n   *************\n   *************  ** Warning ** CalcDoe2DXCoil: Coil:Cooling:DX:SingleSpeed=\"RES ROOM AC|UNIT 13 COOLING COIL\" - Low condenser dry-bulb temperature error continues...\n   *************  **   ~~~   **   This error occurred 48 total times;\n   *************  **   ~~~   **   during Warmup 0 times;\n   *************  **   ~~~   **   during Sizing 0 times.\n   *************  **   ~~~   **   Max=-0.2 [C]  Min=-5. [C]\n   *************\n   *************  ** Warning ** CalcDoe2DXCoil: Coil:Cooling:DX:SingleSpeed=\"RES ROOM AC|UNIT 14 COOLING COIL\" - Low condenser dry-bulb temperature error continues...\n   *************  **   ~~~   **   This error occurred 48 total times;\n   *************  **   ~~~   **   during Warmup 0 times;\n   *************  **   ~~~   **   during Sizing 0 times.\n   *************  **   ~~~   **   Max=-0.2 [C]  Min=-5. [C]\n   *************\n   *************  ** Warning ** CalcDoe2DXCoil: Coil:Cooling:DX:SingleSpeed=\"RES ROOM AC|UNIT 15 COOLING COIL\" - Low condenser dry-bulb temperature error continues...\n   *************  **   ~~~   **   This error occurred 48 total times;\n   *************  **   ~~~   **   during Warmup 0 times;\n   *************  **   ~~~   **   during Sizing 0 times.\n   *************  **   ~~~   **   Max=-0.2 [C]  Min=-5. [C]\n   *************\n   *************  ** Warning ** CalcDoe2DXCoil: Coil:Cooling:DX:SingleSpeed=\"RES ROOM AC|UNIT 16 COOLING COIL\" - Low condenser dry-bulb temperature error continues...\n   *************  **   ~~~   **   This error occurred 49 total times;\n   *************  **   ~~~   **   during Warmup 0 times;\n   *************  **   ~~~   **   during Sizing 0 times.\n   *************  **   ~~~   **   Max=-0.2 [C]  Min=-5. [C]\n   *************\n   *************  ** Warning ** CalcDoe2DXCoil: Coil:Cooling:DX:SingleSpeed=\"RES ROOM AC|UNIT 17 COOLING COIL\" - Low condenser dry-bulb temperature error continues...\n   *************  **   ~~~   **   This error occurred 48 total times;\n   *************  **   ~~~   **   during Warmup 0 times;\n   *************  **   ~~~   **   during Sizing 0 times.\n   *************  **   ~~~   **   Max=-0.2 [C]  Min=-5. [C]\n   *************\n   *************  ** Warning ** CalcDoe2DXCoil: Coil:Cooling:DX:SingleSpeed=\"RES ROOM AC|UNIT 18 COOLING COIL\" - Low condenser dry-bulb temperature error continues...\n   *************  **   ~~~   **   This error occurred 48 total times;\n   *************  **   ~~~   **   during Warmup 0 times;\n   *************  **   ~~~   **   during Sizing 0 times.\n   *************  **   ~~~   **   Max=-0.2 [C]  Min=-5. [C]\n   *************\n   *************  ** Warning ** CalcDoe2DXCoil: Coil:Cooling:DX:SingleSpeed=\"RES ROOM AC|UNIT 12 COOLING COIL\" - Low condenser dry-bulb temperature error continues...\n   *************  **   ~~~   **   This error occurred 11 total times;\n   *************  **   ~~~   **   during Warmup 0 times;\n   *************  **   ~~~   **   during Sizing 0 times.\n   *************  **   ~~~   **   Max=-0.4 [C]  Min=-3.7 [C]\n   *************\n   *************  ** Warning ** CalcDoe2DXCoil: Coil:Cooling:DX:SingleSpeed=\"RES ROOM AC|UNIT 19 COOLING COIL\" - Low condenser dry-bulb temperature error continues...\n   *************  **   ~~~   **   This error occurred 11 total times;\n   *************  **   ~~~   **   during Warmup 0 times;\n   *************  **   ~~~   **   during Sizing 0 times.\n   *************  **   ~~~   **   Max=-0.4 [C]  Min=-3.7 [C]\n   *************\n   *************  ** Warning ** CalcDoe2DXCoil: Coil:Cooling:DX:SingleSpeed=\"RES ROOM AC|UNIT 20 COOLING COIL\" - Low condenser dry-bulb temperature error continues...\n   *************  **   ~~~   **   This error occurred 11 total times;\n   *************  **   ~~~   **   during Warmup 0 times;\n   *************  **   ~~~   **   during Sizing 0 times.\n   *************  **   ~~~   **   Max=-0.4 [C]  Min=-3.7 [C]\n   *************\n   *************  ** Warning ** CalcDoe2DXCoil: Coil:Cooling:DX:SingleSpeed=\"RES ROOM AC|UNIT 11 COOLING COIL\" - Low condenser dry-bulb temperature error continues...\n   *************  **   ~~~   **   This error occurred 9 total times;\n   *************  **   ~~~   **   during Warmup 0 times;\n   *************  **   ~~~   **   during Sizing 0 times.\n   *************  **   ~~~   **   Max=-0.4 [C]  Min=-3.7 [C]\n   *************\n   *************\n   ************* ===== Final Error Summary =====\n   ************* The following error categories occurred.  Consider correcting or noting.\n   ************* Nominally Unused Constructions\n   ************* ..The nominally unused constructions warning is provided to alert you to potential conditions that can cause\n   ************* ..extra time during simulation. Each construction is calculated by the algorithm indicated in the HeatBalanceAlgorithm\n   ************* ..object. You may remove the constructions indicated (when you use the DisplayExtraWarnings option).\n   *************\n   ************* EnergyPlus Warmup Error Summary. During Warmup: 0 Warning; 0 Severe Errors.\n   ************* EnergyPlus Sizing Error Summary. During Sizing: 23 Warning; 0 Severe Errors.\n   ************* EnergyPlus Completed Successfully-- 5165 Warning; 0 Severe Errors; Elapsed Time=00hr 06min 58.92sec\n",
   "file_paths" : [
      "C:/Users/aspeake/Documents/OpenStudio-BuildStock/workflows/singleunit_osw/generated_files",
      "./files",
      "./weather",
      "../../files",
      "../../weather",
      "./"
   ],
   "hash" : "5B94AC94",
   "measure_paths" : [ "../../measures", "../../resources/measures" ],
   "started_at" : "20200130T175948Z",
   "steps" : [
      {
         "arguments" : {
            "dst_end_date" : "October 26",
            "dst_start_date" : "April 7",
            "weather_directory" : "../HPXMLtoOpenStudio/weather",
            "weather_file_name" : "USA_WA_Seattle-Tacoma.Intl.AP.727930_TMY3.epw"
         },
         "measure_dir_name" : "ResidentialLocation",
         "result" : {
            "completed_at" : "20200130T175949Z",
            "measure_class_name" : "SetResidentialEPWFile",
            "measure_display_name" : "Set Residential Location",
            "measure_name" : "set_residential_epw_file",
            "measure_taxonomy" : "Whole Building.Space Types",
            "measure_type" : "ModelMeasure",
            "measure_uid" : "16ac2c0c-6177-4bf2-91a5-1b6e8de4e85b",
            "measure_version_id" : "f89321a2-46dc-44ba-a139-698350046035",
            "measure_version_modified" : "20190701T173021Z",
            "measure_xml_checksum" : "D8922A73",
            "started_at" : "20200130T175948Z",
            "stderr" : "",
            "stdout" : "",
            "step_errors" : [],
            "step_files" : [],
            "step_final_condition" : "The weather file path is 'C:/Users/aspeake/Documents/OpenStudio-BuildStock/resources/measures/HPXMLtoOpenStudio/weather/USA_WA_Seattle-Tacoma.Intl.AP.727930_TMY3.epw'.",
            "step_info" : [
               "Setting weather file.",
               "Setting site data.",
               "Setting Building America climate zone to Marine.",
               "Setting mains water temperature profile.",
               "Set daylight saving time from 2009-Apr-07 to 2009-Oct-26."
            ],
            "step_result" : "Success",
            "step_values" : [
               {
                  "name" : "weather_directory",
                  "value" : "../HPXMLtoOpenStudio/weather"
               },
               {
                  "name" : "weather_file_name",
                  "value" : "USA_WA_Seattle-Tacoma.Intl.AP.727930_TMY3.epw"
               },
               {
                  "name" : "dst_start_date",
                  "value" : "April 7"
               },
               {
                  "name" : "dst_end_date",
                  "value" : "October 26"
               }
            ],
            "step_warnings" : []
         }
      },
      {
         "arguments" : {
            "balcony_depth" : "0",
            "corridor_position" : "Double-Loaded Interior",
            "corridor_width" : "10",
            "eaves_depth" : "2",
            "foundation_height" : "8",
            "foundation_type" : "unfinished basement",
            "inset_depth" : "0",
            "inset_position" : "Right",
            "inset_width" : "0",
            "minimal_collapsed" : "false",
            "neighbor_back_offset" : "0",
            "neighbor_front_offset" : "0",
            "neighbor_left_offset" : "12",
            "neighbor_right_offset" : "12",
            "num_bathrooms" : "1.5",
            "num_bedrooms" : "3",
            "num_floors" : "2",
            "num_occupants" : "auto",
            "num_units" : "20",
            "occupants_monthly_sch" : "1.0, 1.0, 1.0, 1.0, 1.0, 1.0, 1.0, 1.0, 1.0, 1.0, 1.0, 1.0",
            "occupants_weekday_sch" : "1.00, 1.00, 1.00, 1.00, 1.00, 1.00, 1.00, 0.88, 0.41, 0.24, 0.24, 0.24, 0.24, 0.24, 0.24, 0.24, 0.29, 0.55, 0.90, 0.90, 0.90, 1.00, 1.00, 1.00",
            "occupants_weekend_sch" : "1.00, 1.00, 1.00, 1.00, 1.00, 1.00, 1.00, 0.88, 0.41, 0.24, 0.24, 0.24, 0.24, 0.24, 0.24, 0.24, 0.29, 0.55, 0.90, 0.90, 0.90, 1.00, 1.00, 1.00",
            "orientation" : "90",
            "unit_aspect_ratio" : "1.8",
            "unit_ffa" : "500",
            "wall_height" : "8"
         },
         "measure_dir_name" : "ResidentialGeometryCreateMultifamily_master",
         "result" : {
            "completed_at" : "20200130T175953Z",
            "measure_class_name" : "CreateResidentialMultifamilyGeometry",
            "measure_display_name" : "Create Residential Multifamily Geometry",
            "measure_name" : "create_residential_multifamily_geometry",
            "measure_taxonomy" : "Envelope.Form",
            "measure_type" : "ModelMeasure",
            "measure_uid" : "9bc07973-98a4-46fc-b643-e280628817c5",
            "measure_version_id" : "57418f4c-8699-4ebe-aa3c-0e709c23ced7",
            "measure_version_modified" : "20190701T173018Z",
            "measure_xml_checksum" : "2AF3A68E",
            "started_at" : "20200130T175950Z",
            "stderr" : "",
            "stdout" : "[openstudio.model.YearDescription] <1> 'UseWeatherFile' is not yet a supported option for YearDescription\n",
            "step_errors" : [],
            "step_files" : [],
            "step_final_condition" : "The building finished with 23 spaces.",
            "step_info" : [
               "The 20-unit building will be modeled using 20 building units.",
               "Unit '0' has been assigned 3 bedroom(s) and 1.5 bathroom(s).",
               "Unit '1' has been assigned 3 bedroom(s) and 1.5 bathroom(s).",
               "Unit '2' has been assigned 3 bedroom(s) and 1.5 bathroom(s).",
               "Unit '3' has been assigned 3 bedroom(s) and 1.5 bathroom(s).",
               "Unit '4' has been assigned 3 bedroom(s) and 1.5 bathroom(s).",
               "Unit '5' has been assigned 3 bedroom(s) and 1.5 bathroom(s).",
               "Unit '6' has been assigned 3 bedroom(s) and 1.5 bathroom(s).",
               "Unit '7' has been assigned 3 bedroom(s) and 1.5 bathroom(s).",
               "Unit '8' has been assigned 3 bedroom(s) and 1.5 bathroom(s).",
               "Unit '9' has been assigned 3 bedroom(s) and 1.5 bathroom(s).",
               "Unit '10' has been assigned 3 bedroom(s) and 1.5 bathroom(s).",
               "Unit '11' has been assigned 3 bedroom(s) and 1.5 bathroom(s).",
               "Unit '12' has been assigned 3 bedroom(s) and 1.5 bathroom(s).",
               "Unit '13' has been assigned 3 bedroom(s) and 1.5 bathroom(s).",
               "Unit '14' has been assigned 3 bedroom(s) and 1.5 bathroom(s).",
               "Unit '15' has been assigned 3 bedroom(s) and 1.5 bathroom(s).",
               "Unit '16' has been assigned 3 bedroom(s) and 1.5 bathroom(s).",
               "Unit '17' has been assigned 3 bedroom(s) and 1.5 bathroom(s).",
               "Unit '18' has been assigned 3 bedroom(s) and 1.5 bathroom(s).",
               "Unit '19' has been assigned 3 bedroom(s) and 1.5 bathroom(s).",
               "The building has been assigned 60 bedroom(s) and 30.0 bathroom(s) across 20 unit(s).",
               "unit 1 has been assigned 3.39 occupant(s) for space 'living space'.",
               "unit 2 has been assigned 3.39 occupant(s) for space 'living space|unit 2'.",
               "unit 3 has been assigned 3.39 occupant(s) for space 'living space|unit 3|story 1'.",
               "unit 4 has been assigned 3.39 occupant(s) for space 'living space|unit 4|story 1'.",
               "unit 5 has been assigned 3.39 occupant(s) for space 'living space|unit 5|story 1'.",
               "unit 6 has been assigned 3.39 occupant(s) for space 'living space|unit 6|story 1'.",
               "unit 7 has been assigned 3.39 occupant(s) for space 'living space|unit 7|story 1'.",
               "unit 8 has been assigned 3.39 occupant(s) for space 'living space|unit 8|story 1'.",
               "unit 9 has been assigned 3.39 occupant(s) for space 'living space|unit 9|story 1'.",
               "unit 10 has been assigned 3.39 occupant(s) for space 'living space|unit 10|story 1'.",
               "unit 11 has been assigned 3.39 occupant(s) for space 'living space|unit 11|story 1'.",
               "unit 12 has been assigned 3.39 occupant(s) for space 'living space|unit 12|story 1'.",
               "unit 13 has been assigned 3.39 occupant(s) for space 'living space|unit 13|story 1'.",
               "unit 14 has been assigned 3.39 occupant(s) for space 'living space|unit 14|story 1'.",
               "unit 15 has been assigned 3.39 occupant(s) for space 'living space|unit 15|story 1'.",
               "unit 16 has been assigned 3.39 occupant(s) for space 'living space|unit 16|story 1'.",
               "unit 17 has been assigned 3.39 occupant(s) for space 'living space|unit 17|story 1'.",
               "unit 18 has been assigned 3.39 occupant(s) for space 'living space|unit 18|story 1'.",
               "unit 19 has been assigned 3.39 occupant(s) for space 'living space|unit 19|story 1'.",
               "unit 20 has been assigned 3.39 occupant(s) for space 'living space|unit 20|story 1'.",
               "The building has been assigned 67.8 occupant(s) across 20 unit(s).",
               "Added 16 res eaves.",
               "Added 2 res neighbors shading surfaces.",
               "The building's initial orientation was 0.0 azimuth.",
               "The building's final orientation was 90.0 azimuth."
            ],
            "step_initial_condition" : "The building started with 0 spaces.",
            "step_result" : "Success",
            "step_values" : [
               {
                  "name" : "unit_ffa",
                  "value" : 500
               },
               {
                  "name" : "wall_height",
                  "value" : 8
               },
               {
                  "name" : "num_floors",
                  "value" : 2
               },
               {
                  "name" : "num_units",
                  "value" : 20
               },
               {
                  "name" : "unit_aspect_ratio",
                  "value" : 1.8
               },
               {
                  "name" : "corridor_position",
                  "value" : "Double-Loaded Interior"
               },
               {
                  "name" : "corridor_width",
                  "value" : 10
               },
               {
                  "name" : "inset_width",
                  "value" : 0
               },
               {
                  "name" : "inset_depth",
                  "value" : 0
               },
               {
                  "name" : "inset_position",
                  "value" : "Right"
               },
               {
                  "name" : "balcony_depth",
                  "value" : 0
               },
               {
                  "name" : "foundation_type",
                  "value" : "unfinished basement"
               },
               {
                  "name" : "foundation_height",
                  "value" : 8
               },
               {
                  "name" : "eaves_depth",
                  "value" : 2
               },
               {
                  "name" : "num_bedrooms",
                  "value" : "3"
               },
               {
                  "name" : "num_bathrooms",
                  "value" : "1.5"
               },
               {
                  "name" : "num_occupants",
                  "value" : "auto"
               },
               {
                  "name" : "occupants_weekday_sch",
                  "value" : "1.00, 1.00, 1.00, 1.00, 1.00, 1.00, 1.00, 0.88, 0.41, 0.24, 0.24, 0.24, 0.24, 0.24, 0.24, 0.24, 0.29, 0.55, 0.90, 0.90, 0.90, 1.00, 1.00, 1.00"
               },
               {
                  "name" : "occupants_weekend_sch",
                  "value" : "1.00, 1.00, 1.00, 1.00, 1.00, 1.00, 1.00, 0.88, 0.41, 0.24, 0.24, 0.24, 0.24, 0.24, 0.24, 0.24, 0.29, 0.55, 0.90, 0.90, 0.90, 1.00, 1.00, 1.00"
               },
               {
                  "name" : "occupants_monthly_sch",
                  "value" : "1.0, 1.0, 1.0, 1.0, 1.0, 1.0, 1.0, 1.0, 1.0, 1.0, 1.0, 1.0"
               },
               {
                  "name" : "neighbor_left_offset",
                  "value" : 12
               },
               {
                  "name" : "neighbor_right_offset",
                  "value" : 12
               },
               {
                  "name" : "neighbor_back_offset",
                  "value" : 0
               },
               {
                  "name" : "neighbor_front_offset",
                  "value" : 0
               },
               {
                  "name" : "orientation",
                  "value" : 90
               },
               {
                  "name" : "minimal_collapsed",
                  "value" : false
               }
            ],
            "step_warnings" : []
         }
      },
      {
         "arguments" : {
            "door_area" : "20"
         },
         "measure_dir_name" : "ResidentialGeometryDoorArea",
         "result" : {
            "completed_at" : "20200130T175953Z",
            "measure_class_name" : "CreateResidentialDoorArea",
            "measure_display_name" : "Set Residential Door Area",
            "measure_name" : "create_residential_door_area",
            "measure_taxonomy" : "Envelope.Fenestration",
            "measure_type" : "ModelMeasure",
            "measure_uid" : "901a04ee-99d4-42b3-91e1-b5b97970f441",
            "measure_version_id" : "7128d456-5773-4c86-930c-a409ed3b9ea9",
            "measure_version_modified" : "20190701T173018Z",
            "measure_xml_checksum" : "9C8A26EB",
            "started_at" : "20200130T175953Z",
            "stderr" : "",
            "stdout" : "",
            "step_errors" : [],
            "step_files" : [],
            "step_final_condition" : "The building has been assigned 400.0 ft^2 total door area.",
            "step_info" : [
               "For unit 1 added 20.0 ft^2 door.",
               "For unit 2 added 20.0 ft^2 door.",
               "For unit 3 added 20.0 ft^2 door.",
               "For unit 4 added 20.0 ft^2 door.",
               "For unit 5 added 20.0 ft^2 door.",
               "For unit 6 added 20.0 ft^2 door.",
               "For unit 7 added 20.0 ft^2 door.",
               "For unit 8 added 20.0 ft^2 door.",
               "For unit 9 added 20.0 ft^2 door.",
               "For unit 10 added 20.0 ft^2 door.",
               "For unit 11 added 20.0 ft^2 door.",
               "For unit 12 added 20.0 ft^2 door.",
               "For unit 13 added 20.0 ft^2 door.",
               "For unit 14 added 20.0 ft^2 door.",
               "For unit 15 added 20.0 ft^2 door.",
               "For unit 16 added 20.0 ft^2 door.",
               "For unit 17 added 20.0 ft^2 door.",
               "For unit 18 added 20.0 ft^2 door.",
               "For unit 19 added 20.0 ft^2 door.",
               "For unit 20 added 20.0 ft^2 door."
            ],
            "step_result" : "Success",
            "step_values" : [
               {
                  "name" : "door_area",
                  "value" : 20
               }
            ],
            "step_warnings" : []
         }
      },
      {
         "arguments" : {
            "back_skylight_area" : "0",
            "back_window_area" : "0",
            "back_wwr" : "0.15",
            "front_skylight_area" : "0",
            "front_window_area" : "0",
            "front_wwr" : "0.15",
            "left_skylight_area" : "0",
            "left_window_area" : "0",
            "left_wwr" : "0.15",
            "overhang_back_facade" : "false",
            "overhang_depth" : "0",
            "overhang_front_facade" : "false",
            "overhang_left_facade" : "false",
            "overhang_offset" : "0",
            "overhang_right_facade" : "false",
            "right_skylight_area" : "0",
            "right_window_area" : "0",
            "right_wwr" : "0.15",
            "window_aspect_ratio" : "1.333"
         },
         "measure_dir_name" : "ResidentialGeometryWindowSkylightArea",
         "result" : {
            "completed_at" : "20200130T175953Z",
            "measure_class_name" : "SetResidentialWindowSkylightArea",
            "measure_display_name" : "Set Residential Window/Skylight Area",
            "measure_name" : "set_residential_window_skylight_area",
            "measure_taxonomy" : "Envelope.Fenestration",
            "measure_type" : "ModelMeasure",
            "measure_uid" : "d05f5b32-1ad6-4c3d-964a-0dbd49a7fde8",
            "measure_version_id" : "d45b34bc-df3c-4ebc-81e8-a15133972cc7",
            "measure_version_modified" : "20190701T173018Z",
            "measure_xml_checksum" : "9014E219",
            "started_at" : "20200130T175953Z",
            "stderr" : "",
            "stdout" : "",
            "step_errors" : [],
            "step_files" : [],
            "step_final_condition" : "The building has been assigned 688.0 ft^2 total window area, and 0.0 ft^2 total skylight area.",
            "step_info" : [
               "Added 2 window(s), totaling 20.0 ft^2, to Surface 5.",
               "Added 2 window(s), totaling 20.0 ft^2, to Surface 41.",
               "Added 2 window(s), totaling 20.0 ft^2, to Surface 53.",
               "Added 2 window(s), totaling 20.0 ft^2, to Surface 17.",
               "Added 2 window(s), totaling 20.0 ft^2, to Surface 29.",
               "Added 2 window(s), totaling 20.0 ft^2, to Surface 65.",
               "Added 2 window(s), totaling 20.0 ft^2, to Surface 77.",
               "Added 2 window(s), totaling 20.0 ft^2, to Surface 89.",
               "Added 2 window(s), totaling 20.0 ft^2, to Surface 101.",
               "Added 2 window(s), totaling 20.0 ft^2, to Surface 113.",
               "Added 2 window(s), totaling 20.0 ft^2, to Surface 36.",
               "Added 2 window(s), totaling 20.0 ft^2, to Surface 24.",
               "Added 2 window(s), totaling 20.0 ft^2, to Surface 9.",
               "Added 2 window(s), totaling 20.0 ft^2, to Surface 48.",
               "Added 2 window(s), totaling 20.0 ft^2, to Surface 60.",
               "Added 2 window(s), totaling 20.0 ft^2, to Surface 72.",
               "Added 2 window(s), totaling 20.0 ft^2, to Surface 84.",
               "Added 2 window(s), totaling 20.0 ft^2, to Surface 96.",
               "Added 2 window(s), totaling 20.0 ft^2, to Surface 108.",
               "Added 2 window(s), totaling 20.0 ft^2, to Surface 120.",
               "Added 3 window(s), totaling 36.0 ft^2, to Surface 2.",
               "Added 3 window(s), totaling 36.0 ft^2, to Surface 8.",
               "Added 3 window(s), totaling 36.0 ft^2, to Surface 66.",
               "Added 3 window(s), totaling 36.0 ft^2, to Surface 71.",
               "Added 3 window(s), totaling 36.0 ft^2, to Surface 52.",
               "Added 3 window(s), totaling 36.0 ft^2, to Surface 56.",
               "Added 3 window(s), totaling 36.0 ft^2, to Surface 112.",
               "Added 3 window(s), totaling 36.0 ft^2, to Surface 116.",
               "No res overhangs to be added."
            ],
            "step_result" : "Success",
            "step_values" : [
               {
                  "name" : "front_wwr",
                  "value" : 0.14999999999999999
               },
               {
                  "name" : "back_wwr",
                  "value" : 0.14999999999999999
               },
               {
                  "name" : "left_wwr",
                  "value" : 0.14999999999999999
               },
               {
                  "name" : "right_wwr",
                  "value" : 0.14999999999999999
               },
               {
                  "name" : "front_window_area",
                  "value" : 0
               },
               {
                  "name" : "back_window_area",
                  "value" : 0
               },
               {
                  "name" : "left_window_area",
                  "value" : 0
               },
               {
                  "name" : "right_window_area",
                  "value" : 0
               },
               {
                  "name" : "window_aspect_ratio",
                  "value" : 1.333
               },
               {
                  "name" : "overhang_depth",
                  "value" : 0
               },
               {
                  "name" : "overhang_offset",
                  "value" : 0
               },
               {
                  "name" : "overhang_front_facade",
                  "value" : false
               },
               {
                  "name" : "overhang_back_facade",
                  "value" : false
               },
               {
                  "name" : "overhang_left_facade",
                  "value" : false
               },
               {
                  "name" : "overhang_right_facade",
                  "value" : false
               },
               {
                  "name" : "front_skylight_area",
                  "value" : 0
               },
               {
                  "name" : "back_skylight_area",
                  "value" : 0
               },
               {
                  "name" : "left_skylight_area",
                  "value" : 0
               },
               {
                  "name" : "right_skylight_area",
                  "value" : 0
               }
            ],
            "step_warnings" : []
         }
      },
      {
         "arguments" : {
            "ceiling_drywall_thick_in" : "0.5",
            "ceiling_framing_factor" : "0.07",
            "ceiling_ins_thick_in" : "11.23",
            "ceiling_install_grade" : "1",
            "ceiling_joist_height_in" : "3.5",
            "ceiling_r" : "30",
            "has_radiant_barrier" : "false",
            "roof_cavity_ins_thick_in" : "0",
            "roof_cavity_r" : "0",
            "roof_framing_factor" : "0.07",
            "roof_framing_thick_in" : "7.25",
            "roof_install_grade" : "1",
            "roof_osb_thick_in" : "0.75",
            "roof_rigid_r" : "0",
            "roofing_material" : "Asphalt Shingles, Medium"
         },
         "measure_dir_name" : "ResidentialConstructionsUnfinishedAttic",
         "result" : {
            "completed_at" : "20200130T175954Z",
            "measure_class_name" : "ProcessConstructionsUnfinishedAttic",
            "measure_display_name" : "Set Residential Unfinished Attic Constructions",
            "measure_name" : "process_constructions_unfinished_attic",
            "measure_taxonomy" : "Envelope.Opaque",
            "measure_type" : "ModelMeasure",
            "measure_uid" : "235ba3ce-dd83-4287-aa0e-435dc1cbf1a7",
            "measure_version_id" : "8412a1a0-7251-42a2-832d-739109948bdf",
            "measure_version_modified" : "20190701T173017Z",
            "measure_xml_checksum" : "1E963D9C",
            "started_at" : "20200130T175954Z",
            "stderr" : "",
            "stdout" : "",
            "step_errors" : [],
            "step_files" : [],
            "step_info" : [
               "Material 'Asphalt Shingles, Medium' was created.",
               "Material 'RoofSheathing' was created.",
               "Material 'RoofStudAndAirRoof' was created.",
               "Construction 'RoofUnfinUninsExt' was created with 3 materials (Asphalt Shingles, Medium | RoofSheathing | RoofStudAndAirRoof).",
               "Surface 'Surface 126' has been assigned construction 'RoofUnfinUninsExt'.",
               "Surface 'Surface 128' has been assigned construction 'RoofUnfinUninsExt'.",
               "Surface 'Surface 138' has been assigned construction 'RoofUnfinUninsExt'."
            ],
            "step_result" : "Success",
            "step_values" : [
               {
                  "name" : "ceiling_r",
                  "value" : 30
               },
               {
                  "name" : "ceiling_install_grade",
                  "value" : "1"
               },
               {
                  "name" : "ceiling_ins_thick_in",
                  "value" : 11.23
               },
               {
                  "name" : "ceiling_framing_factor",
                  "value" : 0.070000000000000007
               },
               {
                  "name" : "ceiling_joist_height_in",
                  "value" : 3.5
               },
               {
                  "name" : "ceiling_drywall_thick_in",
                  "value" : 0.5
               },
               {
                  "name" : "roof_cavity_r",
                  "value" : 0
               },
               {
                  "name" : "roof_install_grade",
                  "value" : "1"
               },
               {
                  "name" : "roof_cavity_ins_thick_in",
                  "value" : 0
               },
               {
                  "name" : "roof_framing_factor",
                  "value" : 0.070000000000000007
               },
               {
                  "name" : "roof_framing_thick_in",
                  "value" : 7.25
               },
               {
                  "name" : "roof_osb_thick_in",
                  "value" : 0.75
               },
               {
                  "name" : "roof_rigid_r",
                  "value" : 0
               },
               {
                  "name" : "roofing_material",
                  "value" : "Asphalt Shingles, Medium"
               },
               {
                  "name" : "has_radiant_barrier",
                  "value" : false
               }
            ],
            "step_warnings" : []
         }
      },
      {
         "arguments" : {
            "cavity_depth" : "9.25",
            "cavity_r" : "0",
            "drywall_thick_in" : "0.5",
            "filled_cavity" : "false",
            "framing_factor" : "0.07",
            "install_grade" : "1",
            "osb_thick_in" : "0.75",
            "rigid_r" : "0.0",
            "roofing_material" : "Asphalt Shingles, Medium"
         },
         "measure_dir_name" : "ResidentialConstructionsFinishedRoof",
         "result" : {
            "completed_at" : "20200130T175954Z",
            "measure_class_name" : "ProcessConstructionsFinishedRoof",
            "measure_display_name" : "Set Residential Finished Roof Construction",
            "measure_name" : "process_constructions_finished_roof",
            "measure_taxonomy" : "Envelope.Opaque",
            "measure_type" : "ModelMeasure",
            "measure_uid" : "6349eb9b-6e7e-4ba9-b518-76d2f9f73c79",
            "measure_version_id" : "419ed68e-98f0-4200-99c5-e6277268288d",
            "measure_version_modified" : "20190701T173016Z",
            "measure_xml_checksum" : "1E963D9C",
            "started_at" : "20200130T175954Z",
            "stderr" : "",
            "stdout" : "",
            "step_errors" : [],
            "step_files" : [],
            "step_info" : [
               "Material 'RoofIns' was created.",
               "Material 'Drywall 0.5 in.' was created.",
               "Construction 'RoofFinInsExt' was created with 4 materials (Asphalt Shingles, Medium | RoofSheathing | RoofIns | Drywall 0.5 in.).",
               "Surface 'Surface 62' has been assigned construction 'RoofFinInsExt'.",
               "Surface 'Surface 67' has been assigned construction 'RoofFinInsExt'.",
               "Surface 'Surface 74' has been assigned construction 'RoofFinInsExt'.",
               "Surface 'Surface 86' has been assigned construction 'RoofFinInsExt'.",
               "Surface 'Surface 79' has been assigned construction 'RoofFinInsExt'.",
               "Surface 'Surface 91' has been assigned construction 'RoofFinInsExt'.",
               "Surface 'Surface 98' has been assigned construction 'RoofFinInsExt'.",
               "Surface 'Surface 103' has been assigned construction 'RoofFinInsExt'.",
               "Surface 'Surface 110' has been assigned construction 'RoofFinInsExt'.",
               "Surface 'Surface 115' has been assigned construction 'RoofFinInsExt'.",
               "Material 'RoofStudAndAirRoof 1' was created.",
               "Construction 'RoofUnfinUninsExt 1' was created with 3 materials (Asphalt Shingles, Medium | RoofSheathing | RoofStudAndAirRoof 1).",
               "Surface 'Surface 126' has been assigned construction 'RoofUnfinUninsExt 1'.",
               "Surface 'Surface 128' has been assigned construction 'RoofUnfinUninsExt 1'.",
               "Surface 'Surface 138' has been assigned construction 'RoofUnfinUninsExt 1'.",
               "Removed construction 'RoofUnfinUninsExt' because it was orphaned.",
               "Removed material 'RoofStudAndAirRoof' because it was orphaned."
            ],
            "step_result" : "Success",
            "step_values" : [
               {
                  "name" : "cavity_r",
                  "value" : 0
               },
               {
                  "name" : "install_grade",
                  "value" : "1"
               },
               {
                  "name" : "cavity_depth",
                  "value" : 9.25
               },
               {
                  "name" : "filled_cavity",
                  "value" : false
               },
               {
                  "name" : "framing_factor",
                  "value" : 0.070000000000000007
               },
               {
                  "name" : "drywall_thick_in",
                  "value" : 0.5
               },
               {
                  "name" : "osb_thick_in",
                  "value" : 0.75
               },
               {
                  "name" : "rigid_r",
                  "value" : 0
               },
               {
                  "name" : "roofing_material",
                  "value" : "Asphalt Shingles, Medium"
               }
            ],
            "step_warnings" : []
         }
      },
      {
         "arguments" : {
            "cavity_depth_in" : "3.5",
            "cavity_filled" : "true",
            "cavity_r" : "11",
            "drywall_thick_in" : "0.5",
            "exterior_finish" : "Vinyl, Light",
            "framing_factor" : "0.25",
            "install_grade" : "1",
            "osb_thick_in" : "0.5",
            "rigid_r" : "0.0"
         },
         "measure_dir_name" : "ResidentialConstructionsWallsWoodStud",
         "result" : {
            "completed_at" : "20200130T175954Z",
            "measure_class_name" : "ProcessConstructionsWallsWoodStud",
            "measure_display_name" : "Set Residential Walls - Wood Stud Construction",
            "measure_name" : "process_constructions_walls_wood_stud",
            "measure_taxonomy" : "Envelope.Opaque",
            "measure_type" : "ModelMeasure",
            "measure_uid" : "76193c5c-d1a6-4a57-864a-c8a32e67adcb",
            "measure_version_id" : "8c4c2f94-d284-4745-b94d-471663fbbb82",
            "measure_version_modified" : "20190701T173017Z",
            "measure_xml_checksum" : "1E963D9C",
            "started_at" : "20200130T175954Z",
            "stderr" : "",
            "stdout" : "",
            "step_errors" : [],
            "step_files" : [],
            "step_info" : [
               "Material 'Vinyl, Light' was created.",
               "Material 'WallSheathing' was created.",
               "Material 'WallStudAndCavity' was created.",
               "Construction 'WallExtInsFin' was created with 4 materials (Vinyl, Light | WallSheathing | WallStudAndCavity | Drywall 0.5 in.).",
               "Surface 'Surface 36' has been assigned construction 'WallExtInsFin'.",
               "Surface 'Surface 5' has been assigned construction 'WallExtInsFin'.",
               "Surface 'Surface 2' has been assigned construction 'WallExtInsFin'.",
               "Surface 'Surface 24' has been assigned construction 'WallExtInsFin'.",
               "Surface 'Surface 8' has been assigned construction 'WallExtInsFin'.",
               "Surface 'Surface 9' has been assigned construction 'WallExtInsFin'.",
               "Surface 'Surface 41' has been assigned construction 'WallExtInsFin'.",
               "Surface 'Surface 48' has been assigned construction 'WallExtInsFin'.",
               "Surface 'Surface 52' has been assigned construction 'WallExtInsFin'.",
               "Surface 'Surface 53' has been assigned construction 'WallExtInsFin'.",
               "Surface 'Surface 17' has been assigned construction 'WallExtInsFin'.",
               "Surface 'Surface 29' has been assigned construction 'WallExtInsFin'.",
               "Surface 'Surface 56' has been assigned construction 'WallExtInsFin'.",
               "Surface 'Surface 60' has been assigned construction 'WallExtInsFin'.",
               "Surface 'Surface 66' has been assigned construction 'WallExtInsFin'.",
               "Surface 'Surface 65' has been assigned construction 'WallExtInsFin'.",
               "Surface 'Surface 71' has been assigned construction 'WallExtInsFin'.",
               "Surface 'Surface 72' has been assigned construction 'WallExtInsFin'.",
               "Surface 'Surface 77' has been assigned construction 'WallExtInsFin'.",
               "Surface 'Surface 89' has been assigned construction 'WallExtInsFin'.",
               "Surface 'Surface 84' has been assigned construction 'WallExtInsFin'.",
               "Surface 'Surface 96' has been assigned construction 'WallExtInsFin'.",
               "Surface 'Surface 101' has been assigned construction 'WallExtInsFin'.",
               "Surface 'Surface 108' has been assigned construction 'WallExtInsFin'.",
               "Surface 'Surface 112' has been assigned construction 'WallExtInsFin'.",
               "Surface 'Surface 113' has been assigned construction 'WallExtInsFin'.",
               "Surface 'Surface 116' has been assigned construction 'WallExtInsFin'.",
               "Surface 'Surface 120' has been assigned construction 'WallExtInsFin'.",
               "Material 'WallStudAndCavity 1' was created.",
               "Construction 'WallExtUninsUnfin' was created with 3 materials (Vinyl, Light | WallSheathing | WallStudAndCavity 1).",
               "Surface 'Surface 124' has been assigned construction 'WallExtUninsUnfin'.",
               "Surface 'Surface 122' has been assigned construction 'WallExtUninsUnfin'.",
               "Surface 'Surface 131' has been assigned construction 'WallExtUninsUnfin'.",
               "Surface 'Surface 129' has been assigned construction 'WallExtUninsUnfin'.",
               "Material 'WallStudAndCavity 2' was created.",
               "Construction 'WallIntFinUninsFin' was created with 3 materials (Vinyl, Light | WallStudAndCavity 2 | Drywall 0.5 in.).",
               "Surface 'Surface 32' has been assigned construction 'WallIntFinUninsFin'.",
               "Construction 'WallIntFinUninsFin Reversed' was created with 3 materials (Drywall 0.5 in. | WallStudAndCavity 2 | Vinyl, Light).",
               "Surface 'Surface 47' has been assigned construction 'WallIntFinUninsFin Reversed'.",
               "Surface 'Surface 33' has been assigned construction 'WallIntFinUninsFin'.",
               "Surface 'Surface 35' has been assigned construction 'WallIntFinUninsFin'.",
               "Surface 'Surface 20' has been assigned construction 'WallIntFinUninsFin Reversed'.",
               "Surface 'Surface 3' has been assigned construction 'WallIntFinUninsFin'.",
               "Surface 'Surface 4' has been assigned construction 'WallIntFinUninsFin'.",
               "Surface 'Surface 18' has been assigned construction 'WallIntFinUninsFin Reversed'.",
               "Surface 'Surface 21' has been assigned construction 'WallIntFinUninsFin'.",
               "Surface 'Surface 23' has been assigned construction 'WallIntFinUninsFin'.",
               "Surface 'Surface 10' has been assigned construction 'WallIntFinUninsFin Reversed'.",
               "Surface 'Surface 20' has been assigned construction 'WallIntFinUninsFin'.",
               "Surface 'Surface 35' has been assigned construction 'WallIntFinUninsFin Reversed'.",
               "Surface 'Surface 10' has been assigned construction 'WallIntFinUninsFin'.",
               "Surface 'Surface 23' has been assigned construction 'WallIntFinUninsFin Reversed'.",
               "Surface 'Surface 11' has been assigned construction 'WallIntFinUninsFin'.",
               "Surface 'Surface 37' has been assigned construction 'WallIntFinUninsFin'.",
               "Surface 'Surface 40' has been assigned construction 'WallIntFinUninsFin'.",
               "Surface 'Surface 54' has been assigned construction 'WallIntFinUninsFin Reversed'.",
               "Surface 'Surface 42' has been assigned construction 'WallIntFinUninsFin'.",
               "Surface 'Surface 28' has been assigned construction 'WallIntFinUninsFin Reversed'.",
               "Surface 'Surface 45' has been assigned construction 'WallIntFinUninsFin'.",
               "Surface 'Surface 47' has been assigned construction 'WallIntFinUninsFin'.",
               "Surface 'Surface 32' has been assigned construction 'WallIntFinUninsFin Reversed'.",
               "Surface 'Surface 44' has been assigned construction 'WallIntFinUninsFin'.",
               "Surface 'Surface 59' has been assigned construction 'WallIntFinUninsFin Reversed'.",
               "Surface 'Surface 49' has been assigned construction 'WallIntFinUninsFin'.",
               "Surface 'Surface 54' has been assigned construction 'WallIntFinUninsFin'.",
               "Surface 'Surface 40' has been assigned construction 'WallIntFinUninsFin Reversed'.",
               "Surface 'Surface 18' has been assigned construction 'WallIntFinUninsFin'.",
               "Surface 'Surface 4' has been assigned construction 'WallIntFinUninsFin Reversed'.",
               "Surface 'Surface 16' has been assigned construction 'WallIntFinUninsFin'.",
               "Surface 'Surface 30' has been assigned construction 'WallIntFinUninsFin Reversed'.",
               "Surface 'Surface 13' has been assigned construction 'WallIntFinUninsFin'.",
               "Surface 'Surface 30' has been assigned construction 'WallIntFinUninsFin'.",
               "Surface 'Surface 16' has been assigned construction 'WallIntFinUninsFin Reversed'.",
               "Surface 'Surface 28' has been assigned construction 'WallIntFinUninsFin'.",
               "Surface 'Surface 42' has been assigned construction 'WallIntFinUninsFin Reversed'.",
               "Surface 'Surface 25' has been assigned construction 'WallIntFinUninsFin'.",
               "Surface 'Surface 57' has been assigned construction 'WallIntFinUninsFin'.",
               "Surface 'Surface 59' has been assigned construction 'WallIntFinUninsFin'.",
               "Surface 'Surface 44' has been assigned construction 'WallIntFinUninsFin Reversed'.",
               "Surface 'Surface 61' has been assigned construction 'WallIntFinUninsFin'.",
               "Surface 'Surface 64' has been assigned construction 'WallIntFinUninsFin'.",
               "Surface 'Surface 78' has been assigned construction 'WallIntFinUninsFin Reversed'.",
               "Surface 'Surface 68' has been assigned construction 'WallIntFinUninsFin'.",
               "Surface 'Surface 83' has been assigned construction 'WallIntFinUninsFin Reversed'.",
               "Surface 'Surface 69' has been assigned construction 'WallIntFinUninsFin'.",
               "Surface 'Surface 73' has been assigned construction 'WallIntFinUninsFin'.",
               "Surface 'Surface 78' has been assigned construction 'WallIntFinUninsFin'.",
               "Surface 'Surface 64' has been assigned construction 'WallIntFinUninsFin Reversed'.",
               "Surface 'Surface 76' has been assigned construction 'WallIntFinUninsFin'.",
               "Surface 'Surface 90' has been assigned construction 'WallIntFinUninsFin Reversed'.",
               "Surface 'Surface 85' has been assigned construction 'WallIntFinUninsFin'.",
               "Surface 'Surface 88' has been assigned construction 'WallIntFinUninsFin'.",
               "Surface 'Surface 102' has been assigned construction 'WallIntFinUninsFin Reversed'.",
               "Surface 'Surface 90' has been assigned construction 'WallIntFinUninsFin'.",
               "Surface 'Surface 76' has been assigned construction 'WallIntFinUninsFin Reversed'.",
               "Surface 'Surface 80' has been assigned construction 'WallIntFinUninsFin'.",
               "Surface 'Surface 95' has been assigned construction 'WallIntFinUninsFin Reversed'.",
               "Surface 'Surface 83' has been assigned construction 'WallIntFinUninsFin'.",
               "Surface 'Surface 68' has been assigned construction 'WallIntFinUninsFin Reversed'.",
               "Surface 'Surface 81' has been assigned construction 'WallIntFinUninsFin'.",
               "Surface 'Surface 95' has been assigned construction 'WallIntFinUninsFin'.",
               "Surface 'Surface 80' has been assigned construction 'WallIntFinUninsFin Reversed'.",
               "Surface 'Surface 93' has been assigned construction 'WallIntFinUninsFin'.",
               "Surface 'Surface 92' has been assigned construction 'WallIntFinUninsFin'.",
               "Surface 'Surface 107' has been assigned construction 'WallIntFinUninsFin Reversed'.",
               "Surface 'Surface 97' has been assigned construction 'WallIntFinUninsFin'.",
               "Surface 'Surface 100' has been assigned construction 'WallIntFinUninsFin'.",
               "Surface 'Surface 114' has been assigned construction 'WallIntFinUninsFin Reversed'.",
               "Surface 'Surface 102' has been assigned construction 'WallIntFinUninsFin'.",
               "Surface 'Surface 88' has been assigned construction 'WallIntFinUninsFin Reversed'.",
               "Surface 'Surface 105' has been assigned construction 'WallIntFinUninsFin'.",
               "Surface 'Surface 104' has been assigned construction 'WallIntFinUninsFin'.",
               "Surface 'Surface 119' has been assigned construction 'WallIntFinUninsFin Reversed'.",
               "Surface 'Surface 107' has been assigned construction 'WallIntFinUninsFin'.",
               "Surface 'Surface 92' has been assigned construction 'WallIntFinUninsFin Reversed'.",
               "Surface 'Surface 109' has been assigned construction 'WallIntFinUninsFin'.",
               "Surface 'Surface 114' has been assigned construction 'WallIntFinUninsFin'.",
               "Surface 'Surface 100' has been assigned construction 'WallIntFinUninsFin Reversed'.",
               "Surface 'Surface 117' has been assigned construction 'WallIntFinUninsFin'.",
               "Surface 'Surface 119' has been assigned construction 'WallIntFinUninsFin'.",
               "Surface 'Surface 104' has been assigned construction 'WallIntFinUninsFin Reversed'.",
               "Material 'WallStudAndCavity 3' was created.",
               "Construction 'WallIntUnfinUninsUnfin' was created with 2 materials (Vinyl, Light | WallStudAndCavity 3).",
               "Surface 'Surface 123' has been assigned construction 'WallIntUnfinUninsUnfin'.",
               "Surface 'Surface 125' has been assigned construction 'WallIntUnfinUninsUnfin'.",
               "Surface 'Surface 208' has been assigned construction 'WallIntUnfinUninsUnfin'.",
               "Surface 'Surface 199' has been assigned construction 'WallIntUnfinUninsUnfin'.",
               "Surface 'Surface 202' has been assigned construction 'WallIntUnfinUninsUnfin'.",
               "Surface 'Surface 207' has been assigned construction 'WallIntUnfinUninsUnfin'.",
               "Surface 'Surface 209' has been assigned construction 'WallIntUnfinUninsUnfin'.",
               "Surface 'Surface 211' has been assigned construction 'WallIntUnfinUninsUnfin'.",
               "Surface 'Surface 212' has been assigned construction 'WallIntUnfinUninsUnfin'.",
               "Surface 'Surface 210' has been assigned construction 'WallIntUnfinUninsUnfin'.",
               "Surface 'Surface 221' has been assigned construction 'WallIntUnfinUninsUnfin'.",
               "Surface 'Surface 132' has been assigned construction 'WallIntUnfinUninsUnfin'.",
               "Surface 'Surface 127' has been assigned construction 'WallIntUnfinUninsUnfin'.",
               "Surface 'Surface 204' has been assigned construction 'WallIntUnfinUninsUnfin'.",
               "Surface 'Surface 203' has been assigned construction 'WallIntUnfinUninsUnfin'.",
               "Surface 'Surface 215' has been assigned construction 'WallIntUnfinUninsUnfin'.",
               "Surface 'Surface 216' has been assigned construction 'WallIntUnfinUninsUnfin'.",
               "Surface 'Surface 214' has been assigned construction 'WallIntUnfinUninsUnfin'.",
               "Surface 'Surface 219' has been assigned construction 'WallIntUnfinUninsUnfin'.",
               "Surface 'Surface 220' has been assigned construction 'WallIntUnfinUninsUnfin'.",
               "Material 'res furniture material living space|unit 6|story 1' was created.",
               "Construction 'res furniture construction living space|unit 6|story 1' was created with 1 material (res furniture material living space|unit 6|story 1).",
               "InternalMassDefinition 'res furniture mass living space|unit 6|story 1' has been assigned construction 'res furniture construction living space|unit 6|story 1'.",
               "Assigned internal mass object 'res furniture mass living space|unit 6|story 1' to space 'living space|unit 6|story 1'.",
               "Construction 'res furniture construction living space' was created with 1 material (res furniture material living space|unit 6|story 1).",
               "InternalMassDefinition 'res furniture mass living space' has been assigned construction 'res furniture construction living space'.",
               "Assigned internal mass object 'res furniture mass living space' to space 'living space'.",
               "Construction 'res furniture construction living space|unit 4|story 1' was created with 1 material (res furniture material living space|unit 6|story 1).",
               "InternalMassDefinition 'res furniture mass living space|unit 4|story 1' has been assigned construction 'res furniture construction living space|unit 4|story 1'.",
               "Assigned internal mass object 'res furniture mass living space|unit 4|story 1' to space 'living space|unit 4|story 1'.",
               "Construction 'res furniture construction living space|unit 2' was created with 1 material (res furniture material living space|unit 6|story 1).",
               "InternalMassDefinition 'res furniture mass living space|unit 2' has been assigned construction 'res furniture construction living space|unit 2'.",
[...]
               "unit 9 Initial Results (w/o ducts):\nHeat Load = 7441 Btu/hr\nCool Load Sens = 5616 Btu/hr\nCool Load Lat = 679 Btu/hr\nDehumid Load Sens = 2242 Btu/hr\nDehumid Load Lat = 829 Btu/hr\nHeat Airflow = 137 cfm\nCool Airflow = 304 cfm\n",
               "unit 9 Final Results:\nHeat Load = 11542 Btu/hr\nHeat Load Ducts = 4101 Btu/hr\nCool Load Lat = 679 Btu/hr\nCool Load Sens = 5616 Btu/hr\nCool Load Ducts Lat = 0 Btu/hr\nCool Load Ducts Sens = 0 Btu/hr\nDehumid Load Sens = 2242 Btu/hr\nDehumid Load Ducts Lat = 829 Btu/hr\nCool Capacity = 6280 Btu/hr\nCool Capacity Sens = 4082 Btu/hr\nHeat Capacity = 11542 Btu/hr\nHeat Capacity Supp = 0 Btu/hr\nCool Airflow = 183 cfm\nHeat Airflow = 212 cfm\nDehumid WaterRemoval = 0 L/day\n",
               "Found room air conditioner in living zone|unit 10.",
               "Found furnace in living zone|unit 10.",
               "unit 10 Zone Loads for living zone|unit 10:\nHeat Windows = 1122 Btu/hr\nHeat Skylights = 0 Btu/hr\nHeat Doors = 0 Btu/hr\nHeat Walls = 1189 Btu/hr\nHeat Roofs = 0 Btu/hr\nHeat Floors = 521 Btu/hr\nHeat Infil = 4609 Btu/hr\nCool Windows = 1801 Btu/hr\nCool Skylights = 0 Btu/hr\nCool Doors = 0 Btu/hr\nCool Walls = 263 Btu/hr\nCool Roofs = 0 Btu/hr\nCool Floors = -318 Btu/hr\nCool Infil Sens = 327 Btu/hr\nCool Infil Lat = -419 Btu/hr\nCool IntGains Sens = 3553 Btu/hr\nCool IntGains Lat = 1099 Btu/hr\nDehumid Windows = -222 Btu/hr\nDehumid Skylights = 0 Btu/hr\nDehumid Doors = 0 Btu/hr\nDehumid Walls = -235 Btu/hr\nDehumid Roofs = 0 Btu/hr\nDehumid Floors = 612 Btu/hr\nDehumid Infil Sens = -746 Btu/hr\nDehumid Infil Lat = -330 Btu/hr\nDehumid IntGains Sens = 2833 Btu/hr\nDehumid IntGains Lat = 1159 Btu/hr\n",
               "unit 10 Initial Results (w/o ducts):\nHeat Load = 7441 Btu/hr\nCool Load Sens = 5625 Btu/hr\nCool Load Lat = 679 Btu/hr\nDehumid Load Sens = 2242 Btu/hr\nDehumid Load Lat = 829 Btu/hr\nHeat Airflow = 137 cfm\nCool Airflow = 304 cfm\n",
               "unit 10 Final Results:\nHeat Load = 11542 Btu/hr\nHeat Load Ducts = 4101 Btu/hr\nCool Load Lat = 679 Btu/hr\nCool Load Sens = 5625 Btu/hr\nCool Load Ducts Lat = 0 Btu/hr\nCool Load Ducts Sens = 0 Btu/hr\nDehumid Load Sens = 2242 Btu/hr\nDehumid Load Ducts Lat = 829 Btu/hr\nCool Capacity = 6289 Btu/hr\nCool Capacity Sens = 4088 Btu/hr\nHeat Capacity = 11542 Btu/hr\nHeat Capacity Supp = 0 Btu/hr\nCool Airflow = 183 cfm\nHeat Airflow = 212 cfm\nDehumid WaterRemoval = 0 L/day\n",
               "Found room air conditioner in living zone|unit 11.",
               "Found furnace in living zone|unit 11.",
               "unit 11 Zone Loads for living zone|unit 11:\nHeat Windows = 1122 Btu/hr\nHeat Skylights = 0 Btu/hr\nHeat Doors = 0 Btu/hr\nHeat Walls = 1189 Btu/hr\nHeat Roofs = 5536 Btu/hr\nHeat Floors = 0 Btu/hr\nHeat Infil = 4609 Btu/hr\nCool Windows = 1580 Btu/hr\nCool Skylights = 0 Btu/hr\nCool Doors = 0 Btu/hr\nCool Walls = 112 Btu/hr\nCool Roofs = 3767 Btu/hr\nCool Floors = 0 Btu/hr\nCool Infil Sens = 327 Btu/hr\nCool Infil Lat = -419 Btu/hr\nCool IntGains Sens = 3842 Btu/hr\nCool IntGains Lat = 1099 Btu/hr\nDehumid Windows = -222 Btu/hr\nDehumid Skylights = 0 Btu/hr\nDehumid Doors = 0 Btu/hr\nDehumid Walls = -235 Btu/hr\nDehumid Roofs = -1094 Btu/hr\nDehumid Floors = 0 Btu/hr\nDehumid Infil Sens = -746 Btu/hr\nDehumid Infil Lat = -330 Btu/hr\nDehumid IntGains Sens = 3052 Btu/hr\nDehumid IntGains Lat = 1159 Btu/hr\n",
               "unit 11 Initial Results (w/o ducts):\nHeat Load = 12455 Btu/hr\nCool Load Sens = 9627 Btu/hr\nCool Load Lat = 679 Btu/hr\nDehumid Load Sens = 756 Btu/hr\nDehumid Load Lat = 829 Btu/hr\nHeat Airflow = 229 cfm\nCool Airflow = 521 cfm\n",
               "unit 11 Final Results:\nHeat Load = 12455 Btu/hr\nHeat Load Ducts = 0 Btu/hr\nCool Load Lat = 679 Btu/hr\nCool Load Sens = 9627 Btu/hr\nCool Load Ducts Lat = 0 Btu/hr\nCool Load Ducts Sens = 0 Btu/hr\nDehumid Load Sens = 756 Btu/hr\nDehumid Load Ducts Lat = 829 Btu/hr\nCool Capacity = 10281 Btu/hr\nCool Capacity Sens = 6683 Btu/hr\nHeat Capacity = 12455 Btu/hr\nHeat Capacity Supp = 0 Btu/hr\nCool Airflow = 300 cfm\nHeat Airflow = 229 cfm\nDehumid WaterRemoval = 0 L/day\n",
               "Found room air conditioner in living zone|unit 12.",
               "Found furnace in living zone|unit 12.",
               "unit 12 Zone Loads for living zone|unit 12:\nHeat Windows = 1122 Btu/hr\nHeat Skylights = 0 Btu/hr\nHeat Doors = 0 Btu/hr\nHeat Walls = 1189 Btu/hr\nHeat Roofs = 5536 Btu/hr\nHeat Floors = 0 Btu/hr\nHeat Infil = 4609 Btu/hr\nCool Windows = 1331 Btu/hr\nCool Skylights = 0 Btu/hr\nCool Doors = 0 Btu/hr\nCool Walls = 112 Btu/hr\nCool Roofs = 3767 Btu/hr\nCool Floors = 0 Btu/hr\nCool Infil Sens = 327 Btu/hr\nCool Infil Lat = -419 Btu/hr\nCool IntGains Sens = 3842 Btu/hr\nCool IntGains Lat = 1099 Btu/hr\nDehumid Windows = -222 Btu/hr\nDehumid Skylights = 0 Btu/hr\nDehumid Doors = 0 Btu/hr\nDehumid Walls = -235 Btu/hr\nDehumid Roofs = -1094 Btu/hr\nDehumid Floors = 0 Btu/hr\nDehumid Infil Sens = -746 Btu/hr\nDehumid Infil Lat = -330 Btu/hr\nDehumid IntGains Sens = 3052 Btu/hr\nDehumid IntGains Lat = 1159 Btu/hr\n",
               "unit 12 Initial Results (w/o ducts):\nHeat Load = 12455 Btu/hr\nCool Load Sens = 9379 Btu/hr\nCool Load Lat = 679 Btu/hr\nDehumid Load Sens = 756 Btu/hr\nDehumid Load Lat = 829 Btu/hr\nHeat Airflow = 229 cfm\nCool Airflow = 508 cfm\n",
               "unit 12 Final Results:\nHeat Load = 12455 Btu/hr\nHeat Load Ducts = 0 Btu/hr\nCool Load Lat = 679 Btu/hr\nCool Load Sens = 9379 Btu/hr\nCool Load Ducts Lat = 0 Btu/hr\nCool Load Ducts Sens = 0 Btu/hr\nDehumid Load Sens = 756 Btu/hr\nDehumid Load Ducts Lat = 829 Btu/hr\nCool Capacity = 10034 Btu/hr\nCool Capacity Sens = 6522 Btu/hr\nHeat Capacity = 12455 Btu/hr\nHeat Capacity Supp = 0 Btu/hr\nCool Airflow = 293 cfm\nHeat Airflow = 229 cfm\nDehumid WaterRemoval = 0 L/day\n",
               "Found room air conditioner in living zone|unit 13.",
               "Found furnace in living zone|unit 13.",
               "unit 13 Zone Loads for living zone|unit 13:\nHeat Windows = 401 Btu/hr\nHeat Skylights = 0 Btu/hr\nHeat Doors = 0 Btu/hr\nHeat Walls = 425 Btu/hr\nHeat Roofs = 5536 Btu/hr\nHeat Floors = 0 Btu/hr\nHeat Infil = 1646 Btu/hr\nCool Windows = 1352 Btu/hr\nCool Skylights = 0 Btu/hr\nCool Doors = 0 Btu/hr\nCool Walls = 94 Btu/hr\nCool Roofs = 3767 Btu/hr\nCool Floors = 0 Btu/hr\nCool Infil Sens = 117 Btu/hr\nCool Infil Lat = -150 Btu/hr\nCool IntGains Sens = 3842 Btu/hr\nCool IntGains Lat = 1099 Btu/hr\nDehumid Windows = -79 Btu/hr\nDehumid Skylights = 0 Btu/hr\nDehumid Doors = 0 Btu/hr\nDehumid Walls = -84 Btu/hr\nDehumid Roofs = -1094 Btu/hr\nDehumid Floors = 0 Btu/hr\nDehumid Infil Sens = -266 Btu/hr\nDehumid Infil Lat = -118 Btu/hr\nDehumid IntGains Sens = 3052 Btu/hr\nDehumid IntGains Lat = 1159 Btu/hr\n",
               "unit 13 Initial Results (w/o ducts):\nHeat Load = 8007 Btu/hr\nCool Load Sens = 9171 Btu/hr\nCool Load Lat = 949 Btu/hr\nDehumid Load Sens = 1529 Btu/hr\nDehumid Load Lat = 1042 Btu/hr\nHeat Airflow = 147 cfm\nCool Airflow = 496 cfm\n",
               "unit 13 Final Results:\nHeat Load = 8007 Btu/hr\nHeat Load Ducts = 0 Btu/hr\nCool Load Lat = 949 Btu/hr\nCool Load Sens = 9171 Btu/hr\nCool Load Ducts Lat = 0 Btu/hr\nCool Load Ducts Sens = 0 Btu/hr\nDehumid Load Sens = 1529 Btu/hr\nDehumid Load Ducts Lat = 1042 Btu/hr\nCool Capacity = 10095 Btu/hr\nCool Capacity Sens = 6562 Btu/hr\nHeat Capacity = 8007 Btu/hr\nHeat Capacity Supp = 0 Btu/hr\nCool Airflow = 294 cfm\nHeat Airflow = 147 cfm\nDehumid WaterRemoval = 0 L/day\n",
               "Found room air conditioner in living zone|unit 14.",
               "Found furnace in living zone|unit 14.",
               "unit 14 Zone Loads for living zone|unit 14:\nHeat Windows = 401 Btu/hr\nHeat Skylights = 0 Btu/hr\nHeat Doors = 0 Btu/hr\nHeat Walls = 425 Btu/hr\nHeat Roofs = 5536 Btu/hr\nHeat Floors = 0 Btu/hr\nHeat Infil = 1646 Btu/hr\nCool Windows = 1336 Btu/hr\nCool Skylights = 0 Btu/hr\nCool Doors = 0 Btu/hr\nCool Walls = 94 Btu/hr\nCool Roofs = 3767 Btu/hr\nCool Floors = 0 Btu/hr\nCool Infil Sens = 117 Btu/hr\nCool Infil Lat = -150 Btu/hr\nCool IntGains Sens = 3842 Btu/hr\nCool IntGains Lat = 1099 Btu/hr\nDehumid Windows = -79 Btu/hr\nDehumid Skylights = 0 Btu/hr\nDehumid Doors = 0 Btu/hr\nDehumid Walls = -84 Btu/hr\nDehumid Roofs = -1094 Btu/hr\nDehumid Floors = 0 Btu/hr\nDehumid Infil Sens = -266 Btu/hr\nDehumid Infil Lat = -118 Btu/hr\nDehumid IntGains Sens = 3052 Btu/hr\nDehumid IntGains Lat = 1159 Btu/hr\n",
               "unit 14 Initial Results (w/o ducts):\nHeat Load = 8007 Btu/hr\nCool Load Sens = 9155 Btu/hr\nCool Load Lat = 949 Btu/hr\nDehumid Load Sens = 1529 Btu/hr\nDehumid Load Lat = 1042 Btu/hr\nHeat Airflow = 147 cfm\nCool Airflow = 496 cfm\n",
               "unit 14 Final Results:\nHeat Load = 8007 Btu/hr\nHeat Load Ducts = 0 Btu/hr\nCool Load Lat = 949 Btu/hr\nCool Load Sens = 9155 Btu/hr\nCool Load Ducts Lat = 0 Btu/hr\nCool Load Ducts Sens = 0 Btu/hr\nDehumid Load Sens = 1529 Btu/hr\nDehumid Load Ducts Lat = 1042 Btu/hr\nCool Capacity = 10080 Btu/hr\nCool Capacity Sens = 6552 Btu/hr\nHeat Capacity = 8007 Btu/hr\nHeat Capacity Supp = 0 Btu/hr\nCool Airflow = 294 cfm\nHeat Airflow = 147 cfm\nDehumid WaterRemoval = 0 L/day\n",
               "Found room air conditioner in living zone|unit 15.",
               "Found furnace in living zone|unit 15.",
               "unit 15 Zone Loads for living zone|unit 15:\nHeat Windows = 401 Btu/hr\nHeat Skylights = 0 Btu/hr\nHeat Doors = 0 Btu/hr\nHeat Walls = 425 Btu/hr\nHeat Roofs = 5536 Btu/hr\nHeat Floors = 0 Btu/hr\nHeat Infil = 1646 Btu/hr\nCool Windows = 1352 Btu/hr\nCool Skylights = 0 Btu/hr\nCool Doors = 0 Btu/hr\nCool Walls = 94 Btu/hr\nCool Roofs = 3767 Btu/hr\nCool Floors = 0 Btu/hr\nCool Infil Sens = 117 Btu/hr\nCool Infil Lat = -150 Btu/hr\nCool IntGains Sens = 3842 Btu/hr\nCool IntGains Lat = 1099 Btu/hr\nDehumid Windows = -79 Btu/hr\nDehumid Skylights = 0 Btu/hr\nDehumid Doors = 0 Btu/hr\nDehumid Walls = -84 Btu/hr\nDehumid Roofs = -1094 Btu/hr\nDehumid Floors = 0 Btu/hr\nDehumid Infil Sens = -266 Btu/hr\nDehumid Infil Lat = -118 Btu/hr\nDehumid IntGains Sens = 3052 Btu/hr\nDehumid IntGains Lat = 1159 Btu/hr\n",
               "unit 15 Initial Results (w/o ducts):\nHeat Load = 8007 Btu/hr\nCool Load Sens = 9171 Btu/hr\nCool Load Lat = 949 Btu/hr\nDehumid Load Sens = 1529 Btu/hr\nDehumid Load Lat = 1042 Btu/hr\nHeat Airflow = 147 cfm\nCool Airflow = 496 cfm\n",
               "unit 15 Final Results:\nHeat Load = 8007 Btu/hr\nHeat Load Ducts = 0 Btu/hr\nCool Load Lat = 949 Btu/hr\nCool Load Sens = 9171 Btu/hr\nCool Load Ducts Lat = 0 Btu/hr\nCool Load Ducts Sens = 0 Btu/hr\nDehumid Load Sens = 1529 Btu/hr\nDehumid Load Ducts Lat = 1042 Btu/hr\nCool Capacity = 10095 Btu/hr\nCool Capacity Sens = 6562 Btu/hr\nHeat Capacity = 8007 Btu/hr\nHeat Capacity Supp = 0 Btu/hr\nCool Airflow = 294 cfm\nHeat Airflow = 147 cfm\nDehumid WaterRemoval = 0 L/day\n",
               "Found room air conditioner in living zone|unit 16.",
               "Found furnace in living zone|unit 16.",
               "unit 16 Zone Loads for living zone|unit 16:\nHeat Windows = 401 Btu/hr\nHeat Skylights = 0 Btu/hr\nHeat Doors = 0 Btu/hr\nHeat Walls = 425 Btu/hr\nHeat Roofs = 5536 Btu/hr\nHeat Floors = 0 Btu/hr\nHeat Infil = 1646 Btu/hr\nCool Windows = 1336 Btu/hr\nCool Skylights = 0 Btu/hr\nCool Doors = 0 Btu/hr\nCool Walls = 94 Btu/hr\nCool Roofs = 3767 Btu/hr\nCool Floors = 0 Btu/hr\nCool Infil Sens = 117 Btu/hr\nCool Infil Lat = -150 Btu/hr\nCool IntGains Sens = 3842 Btu/hr\nCool IntGains Lat = 1099 Btu/hr\nDehumid Windows = -79 Btu/hr\nDehumid Skylights = 0 Btu/hr\nDehumid Doors = 0 Btu/hr\nDehumid Walls = -84 Btu/hr\nDehumid Roofs = -1094 Btu/hr\nDehumid Floors = 0 Btu/hr\nDehumid Infil Sens = -266 Btu/hr\nDehumid Infil Lat = -118 Btu/hr\nDehumid IntGains Sens = 3052 Btu/hr\nDehumid IntGains Lat = 1159 Btu/hr\n",
               "unit 16 Initial Results (w/o ducts):\nHeat Load = 8007 Btu/hr\nCool Load Sens = 9155 Btu/hr\nCool Load Lat = 949 Btu/hr\nDehumid Load Sens = 1529 Btu/hr\nDehumid Load Lat = 1042 Btu/hr\nHeat Airflow = 147 cfm\nCool Airflow = 496 cfm\n",
               "unit 16 Final Results:\nHeat Load = 8007 Btu/hr\nHeat Load Ducts = 0 Btu/hr\nCool Load Lat = 949 Btu/hr\nCool Load Sens = 9155 Btu/hr\nCool Load Ducts Lat = 0 Btu/hr\nCool Load Ducts Sens = 0 Btu/hr\nDehumid Load Sens = 1529 Btu/hr\nDehumid Load Ducts Lat = 1042 Btu/hr\nCool Capacity = 10080 Btu/hr\nCool Capacity Sens = 6552 Btu/hr\nHeat Capacity = 8007 Btu/hr\nHeat Capacity Supp = 0 Btu/hr\nCool Airflow = 294 cfm\nHeat Airflow = 147 cfm\nDehumid WaterRemoval = 0 L/day\n",
               "Found room air conditioner in living zone|unit 17.",
               "Found furnace in living zone|unit 17.",
               "unit 17 Zone Loads for living zone|unit 17:\nHeat Windows = 401 Btu/hr\nHeat Skylights = 0 Btu/hr\nHeat Doors = 0 Btu/hr\nHeat Walls = 425 Btu/hr\nHeat Roofs = 5536 Btu/hr\nHeat Floors = 0 Btu/hr\nHeat Infil = 1646 Btu/hr\nCool Windows = 1352 Btu/hr\nCool Skylights = 0 Btu/hr\nCool Doors = 0 Btu/hr\nCool Walls = 94 Btu/hr\nCool Roofs = 3767 Btu/hr\nCool Floors = 0 Btu/hr\nCool Infil Sens = 117 Btu/hr\nCool Infil Lat = -150 Btu/hr\nCool IntGains Sens = 3842 Btu/hr\nCool IntGains Lat = 1099 Btu/hr\nDehumid Windows = -79 Btu/hr\nDehumid Skylights = 0 Btu/hr\nDehumid Doors = 0 Btu/hr\nDehumid Walls = -84 Btu/hr\nDehumid Roofs = -1094 Btu/hr\nDehumid Floors = 0 Btu/hr\nDehumid Infil Sens = -266 Btu/hr\nDehumid Infil Lat = -118 Btu/hr\nDehumid IntGains Sens = 3052 Btu/hr\nDehumid IntGains Lat = 1159 Btu/hr\n",
               "unit 17 Initial Results (w/o ducts):\nHeat Load = 8007 Btu/hr\nCool Load Sens = 9171 Btu/hr\nCool Load Lat = 949 Btu/hr\nDehumid Load Sens = 1529 Btu/hr\nDehumid Load Lat = 1042 Btu/hr\nHeat Airflow = 147 cfm\nCool Airflow = 496 cfm\n",
               "unit 17 Final Results:\nHeat Load = 8007 Btu/hr\nHeat Load Ducts = 0 Btu/hr\nCool Load Lat = 949 Btu/hr\nCool Load Sens = 9171 Btu/hr\nCool Load Ducts Lat = 0 Btu/hr\nCool Load Ducts Sens = 0 Btu/hr\nDehumid Load Sens = 1529 Btu/hr\nDehumid Load Ducts Lat = 1042 Btu/hr\nCool Capacity = 10095 Btu/hr\nCool Capacity Sens = 6562 Btu/hr\nHeat Capacity = 8007 Btu/hr\nHeat Capacity Supp = 0 Btu/hr\nCool Airflow = 294 cfm\nHeat Airflow = 147 cfm\nDehumid WaterRemoval = 0 L/day\n",
               "Found room air conditioner in living zone|unit 18.",
               "Found furnace in living zone|unit 18.",
               "unit 18 Zone Loads for living zone|unit 18:\nHeat Windows = 401 Btu/hr\nHeat Skylights = 0 Btu/hr\nHeat Doors = 0 Btu/hr\nHeat Walls = 425 Btu/hr\nHeat Roofs = 5536 Btu/hr\nHeat Floors = 0 Btu/hr\nHeat Infil = 1646 Btu/hr\nCool Windows = 1336 Btu/hr\nCool Skylights = 0 Btu/hr\nCool Doors = 0 Btu/hr\nCool Walls = 94 Btu/hr\nCool Roofs = 3767 Btu/hr\nCool Floors = 0 Btu/hr\nCool Infil Sens = 117 Btu/hr\nCool Infil Lat = -150 Btu/hr\nCool IntGains Sens = 3842 Btu/hr\nCool IntGains Lat = 1099 Btu/hr\nDehumid Windows = -79 Btu/hr\nDehumid Skylights = 0 Btu/hr\nDehumid Doors = 0 Btu/hr\nDehumid Walls = -84 Btu/hr\nDehumid Roofs = -1094 Btu/hr\nDehumid Floors = 0 Btu/hr\nDehumid Infil Sens = -266 Btu/hr\nDehumid Infil Lat = -118 Btu/hr\nDehumid IntGains Sens = 3052 Btu/hr\nDehumid IntGains Lat = 1159 Btu/hr\n",
               "unit 18 Initial Results (w/o ducts):\nHeat Load = 8007 Btu/hr\nCool Load Sens = 9155 Btu/hr\nCool Load Lat = 949 Btu/hr\nDehumid Load Sens = 1529 Btu/hr\nDehumid Load Lat = 1042 Btu/hr\nHeat Airflow = 147 cfm\nCool Airflow = 496 cfm\n",
               "unit 18 Final Results:\nHeat Load = 8007 Btu/hr\nHeat Load Ducts = 0 Btu/hr\nCool Load Lat = 949 Btu/hr\nCool Load Sens = 9155 Btu/hr\nCool Load Ducts Lat = 0 Btu/hr\nCool Load Ducts Sens = 0 Btu/hr\nDehumid Load Sens = 1529 Btu/hr\nDehumid Load Ducts Lat = 1042 Btu/hr\nCool Capacity = 10080 Btu/hr\nCool Capacity Sens = 6552 Btu/hr\nHeat Capacity = 8007 Btu/hr\nHeat Capacity Supp = 0 Btu/hr\nCool Airflow = 294 cfm\nHeat Airflow = 147 cfm\nDehumid WaterRemoval = 0 L/day\n",
               "Found room air conditioner in living zone|unit 19.",
               "Found furnace in living zone|unit 19.",
               "unit 19 Zone Loads for living zone|unit 19:\nHeat Windows = 1122 Btu/hr\nHeat Skylights = 0 Btu/hr\nHeat Doors = 0 Btu/hr\nHeat Walls = 1189 Btu/hr\nHeat Roofs = 5536 Btu/hr\nHeat Floors = 0 Btu/hr\nHeat Infil = 4609 Btu/hr\nCool Windows = 1791 Btu/hr\nCool Skylights = 0 Btu/hr\nCool Doors = 0 Btu/hr\nCool Walls = 263 Btu/hr\nCool Roofs = 3767 Btu/hr\nCool Floors = 0 Btu/hr\nCool Infil Sens = 327 Btu/hr\nCool Infil Lat = -419 Btu/hr\nCool IntGains Sens = 3842 Btu/hr\nCool IntGains Lat = 1099 Btu/hr\nDehumid Windows = -222 Btu/hr\nDehumid Skylights = 0 Btu/hr\nDehumid Doors = 0 Btu/hr\nDehumid Walls = -235 Btu/hr\nDehumid Roofs = -1094 Btu/hr\nDehumid Floors = 0 Btu/hr\nDehumid Infil Sens = -746 Btu/hr\nDehumid Infil Lat = -330 Btu/hr\nDehumid IntGains Sens = 3052 Btu/hr\nDehumid IntGains Lat = 1159 Btu/hr\n",
               "unit 19 Initial Results (w/o ducts):\nHeat Load = 12455 Btu/hr\nCool Load Sens = 9990 Btu/hr\nCool Load Lat = 679 Btu/hr\nDehumid Load Sens = 756 Btu/hr\nDehumid Load Lat = 829 Btu/hr\nHeat Airflow = 229 cfm\nCool Airflow = 541 cfm\n",
               "unit 19 Final Results:\nHeat Load = 12455 Btu/hr\nHeat Load Ducts = 0 Btu/hr\nCool Load Lat = 679 Btu/hr\nCool Load Sens = 9990 Btu/hr\nCool Load Ducts Lat = 0 Btu/hr\nCool Load Ducts Sens = 0 Btu/hr\nDehumid Load Sens = 756 Btu/hr\nDehumid Load Ducts Lat = 829 Btu/hr\nCool Capacity = 10643 Btu/hr\nCool Capacity Sens = 6918 Btu/hr\nHeat Capacity = 12455 Btu/hr\nHeat Capacity Supp = 0 Btu/hr\nCool Airflow = 310 cfm\nHeat Airflow = 229 cfm\nDehumid WaterRemoval = 0 L/day\n",
               "Found room air conditioner in living zone|unit 20.",
               "Found furnace in living zone|unit 20.",
               "unit 20 Zone Loads for living zone|unit 20:\nHeat Windows = 1122 Btu/hr\nHeat Skylights = 0 Btu/hr\nHeat Doors = 0 Btu/hr\nHeat Walls = 1189 Btu/hr\nHeat Roofs = 5536 Btu/hr\nHeat Floors = 0 Btu/hr\nHeat Infil = 4609 Btu/hr\nCool Windows = 1801 Btu/hr\nCool Skylights = 0 Btu/hr\nCool Doors = 0 Btu/hr\nCool Walls = 263 Btu/hr\nCool Roofs = 3767 Btu/hr\nCool Floors = 0 Btu/hr\nCool Infil Sens = 327 Btu/hr\nCool Infil Lat = -419 Btu/hr\nCool IntGains Sens = 3842 Btu/hr\nCool IntGains Lat = 1099 Btu/hr\nDehumid Windows = -222 Btu/hr\nDehumid Skylights = 0 Btu/hr\nDehumid Doors = 0 Btu/hr\nDehumid Walls = -235 Btu/hr\nDehumid Roofs = -1094 Btu/hr\nDehumid Floors = 0 Btu/hr\nDehumid Infil Sens = -746 Btu/hr\nDehumid Infil Lat = -330 Btu/hr\nDehumid IntGains Sens = 3052 Btu/hr\nDehumid IntGains Lat = 1159 Btu/hr\n",
               "unit 20 Initial Results (w/o ducts):\nHeat Load = 12455 Btu/hr\nCool Load Sens = 9999 Btu/hr\nCool Load Lat = 679 Btu/hr\nDehumid Load Sens = 756 Btu/hr\nDehumid Load Lat = 829 Btu/hr\nHeat Airflow = 229 cfm\nCool Airflow = 541 cfm\n",
               "unit 20 Final Results:\nHeat Load = 12455 Btu/hr\nHeat Load Ducts = 0 Btu/hr\nCool Load Lat = 679 Btu/hr\nCool Load Sens = 9999 Btu/hr\nCool Load Ducts Lat = 0 Btu/hr\nCool Load Ducts Sens = 0 Btu/hr\nDehumid Load Sens = 756 Btu/hr\nDehumid Load Ducts Lat = 829 Btu/hr\nCool Capacity = 10653 Btu/hr\nCool Capacity Sens = 6924 Btu/hr\nHeat Capacity = 12455 Btu/hr\nHeat Capacity Supp = 0 Btu/hr\nCool Airflow = 311 cfm\nHeat Airflow = 229 cfm\nDehumid WaterRemoval = 0 L/day\n"
            ],
            "step_result" : "Success",
            "step_values" : [
               {
                  "name" : "show_debug_info",
                  "value" : true
               }
            ],
            "step_warnings" : []
         }
      }
   ],
   "updated_at" : "20200130T181106Z"
}
