{
   "completed_at" : "20191220T162604Z",
   "completed_status" : "Success",
   "current_step" : 30,
   "eplusout_err" : "Program Version,EnergyPlus, Version 9.2.0-921312fa1d, YMD=2019.12.20 09:20,\n   ************* Beginning Zone Sizing Calculations\n   ** Warning ** ProcessScheduleInput: Schedule:Constant=\"ALWAYS ON CONTINUOUS\", Blank Schedule Type Limits Name input -- will not be validated.\n   ** Warning ** CalculateZoneVolume: 1 zone is not fully enclosed. For more details use:  Output:Diagnostics,DisplayExtrawarnings; \n   ** Warning ** CheckUsedConstructions: There are 2 nominally unused constructions in input.\n   **   ~~~   ** For explicit details on each unused construction, use Output:Diagnostics,DisplayExtraWarnings;\n   ************* Beginning System Sizing Calculations\n   ************* Beginning Plant Sizing Calculations\n   ** Warning ** The Standard Ratings is calculated for Coil:Cooling:DX:SingleSpeed = RES AC COOLING COIL but not at the AHRI test condition due to curve out of bound.\n   **   ~~~   **  Review the Standard Ratings calculations in the Engineering Reference for this coil type. Also, use Output:Diagnostics, DisplayExtraWarnings for further guidance.\n   ** Warning ** The Standard Ratings is calculated for Coil:Cooling:DX:SingleSpeed = RES AC|UNIT 10 COOLING COIL but not at the AHRI test condition due to curve out of bound.\n   **   ~~~   **  Review the Standard Ratings calculations in the Engineering Reference for this coil type. Also, use Output:Diagnostics, DisplayExtraWarnings for further guidance.\n   ** Warning ** The Standard Ratings is calculated for Coil:Cooling:DX:SingleSpeed = RES AC|UNIT 11 COOLING COIL but not at the AHRI test condition due to curve out of bound.\n   **   ~~~   **  Review the Standard Ratings calculations in the Engineering Reference for this coil type. Also, use Output:Diagnostics, DisplayExtraWarnings for further guidance.\n   ** Warning ** The Standard Ratings is calculated for Coil:Cooling:DX:SingleSpeed = RES AC|UNIT 12 COOLING COIL but not at the AHRI test condition due to curve out of bound.\n   **   ~~~   **  Review the Standard Ratings calculations in the Engineering Reference for this coil type. Also, use Output:Diagnostics, DisplayExtraWarnings for further guidance.\n   ** Warning ** The Standard Ratings is calculated for Coil:Cooling:DX:SingleSpeed = RES AC|UNIT 13 COOLING COIL but not at the AHRI test condition due to curve out of bound.\n   **   ~~~   **  Review the Standard Ratings calculations in the Engineering Reference for this coil type. Also, use Output:Diagnostics, DisplayExtraWarnings for further guidance.\n   ** Warning ** The Standard Ratings is calculated for Coil:Cooling:DX:SingleSpeed = RES AC|UNIT 14 COOLING COIL but not at the AHRI test condition due to curve out of bound.\n   **   ~~~   **  Review the Standard Ratings calculations in the Engineering Reference for this coil type. Also, use Output:Diagnostics, DisplayExtraWarnings for further guidance.\n   ** Warning ** The Standard Ratings is calculated for Coil:Cooling:DX:SingleSpeed = RES AC|UNIT 15 COOLING COIL but not at the AHRI test condition due to curve out of bound.\n   **   ~~~   **  Review the Standard Ratings calculations in the Engineering Reference for this coil type. Also, use Output:Diagnostics, DisplayExtraWarnings for further guidance.\n   ** Warning ** The Standard Ratings is calculated for Coil:Cooling:DX:SingleSpeed = RES AC|UNIT 16 COOLING COIL but not at the AHRI test condition due to curve out of bound.\n   **   ~~~   **  Review the Standard Ratings calculations in the Engineering Reference for this coil type. Also, use Output:Diagnostics, DisplayExtraWarnings for further guidance.\n   ** Warning ** The Standard Ratings is calculated for Coil:Cooling:DX:SingleSpeed = RES AC|UNIT 17 COOLING COIL but not at the AHRI test condition due to curve out of bound.\n   **   ~~~   **  Review the Standard Ratings calculations in the Engineering Reference for this coil type. Also, use Output:Diagnostics, DisplayExtraWarnings for further guidance.\n   ** Warning ** The Standard Ratings is calculated for Coil:Cooling:DX:SingleSpeed = RES AC|UNIT 18 COOLING COIL but not at the AHRI test condition due to curve out of bound.\n   **   ~~~   **  Review the Standard Ratings calculations in the Engineering Reference for this coil type. Also, use Output:Diagnostics, DisplayExtraWarnings for further guidance.\n   ** Warning ** The Standard Ratings is calculated for Coil:Cooling:DX:SingleSpeed = RES AC|UNIT 19 COOLING COIL but not at the AHRI test condition due to curve out of bound.\n   **   ~~~   **  Review the Standard Ratings calculations in the Engineering Reference for this coil type. Also, use Output:Diagnostics, DisplayExtraWarnings for further guidance.\n   ** Warning ** The Standard Ratings is calculated for Coil:Cooling:DX:SingleSpeed = RES AC|UNIT 2 COOLING COIL but not at the AHRI test condition due to curve out of bound.\n   **   ~~~   **  Review the Standard Ratings calculations in the Engineering Reference for this coil type. Also, use Output:Diagnostics, DisplayExtraWarnings for further guidance.\n   ** Warning ** The Standard Ratings is calculated for Coil:Cooling:DX:SingleSpeed = RES AC|UNIT 20 COOLING COIL but not at the AHRI test condition due to curve out of bound.\n   **   ~~~   **  Review the Standard Ratings calculations in the Engineering Reference for this coil type. Also, use Output:Diagnostics, DisplayExtraWarnings for further guidance.\n   ** Warning ** The Standard Ratings is calculated for Coil:Cooling:DX:SingleSpeed = RES AC|UNIT 21 COOLING COIL but not at the AHRI test condition due to curve out of bound.\n   **   ~~~   **  Review the Standard Ratings calculations in the Engineering Reference for this coil type. Also, use Output:Diagnostics, DisplayExtraWarnings for further guidance.\n   ** Warning ** The Standard Ratings is calculated for Coil:Cooling:DX:SingleSpeed = RES AC|UNIT 22 COOLING COIL but not at the AHRI test condition due to curve out of bound.\n   **   ~~~   **  Review the Standard Ratings calculations in the Engineering Reference for this coil type. Also, use Output:Diagnostics, DisplayExtraWarnings for further guidance.\n   ** Warning ** The Standard Ratings is calculated for Coil:Cooling:DX:SingleSpeed = RES AC|UNIT 23 COOLING COIL but not at the AHRI test condition due to curve out of bound.\n   **   ~~~   **  Review the Standard Ratings calculations in the Engineering Reference for this coil type. Also, use Output:Diagnostics, DisplayExtraWarnings for further guidance.\n   ** Warning ** The Standard Ratings is calculated for Coil:Cooling:DX:SingleSpeed = RES AC|UNIT 24 COOLING COIL but not at the AHRI test condition due to curve out of bound.\n   **   ~~~   **  Review the Standard Ratings calculations in the Engineering Reference for this coil type. Also, use Output:Diagnostics, DisplayExtraWarnings for further guidance.\n   ** Warning ** The Standard Ratings is calculated for Coil:Cooling:DX:SingleSpeed = RES AC|UNIT 3 COOLING COIL but not at the AHRI test condition due to curve out of bound.\n   **   ~~~   **  Review the Standard Ratings calculations in the Engineering Reference for this coil type. Also, use Output:Diagnostics, DisplayExtraWarnings for further guidance.\n   ** Warning ** The Standard Ratings is calculated for Coil:Cooling:DX:SingleSpeed = RES AC|UNIT 4 COOLING COIL but not at the AHRI test condition due to curve out of bound.\n   **   ~~~   **  Review the Standard Ratings calculations in the Engineering Reference for this coil type. Also, use Output:Diagnostics, DisplayExtraWarnings for further guidance.\n   ** Warning ** The Standard Ratings is calculated for Coil:Cooling:DX:SingleSpeed = RES AC|UNIT 5 COOLING COIL but not at the AHRI test condition due to curve out of bound.\n   **   ~~~   **  Review the Standard Ratings calculations in the Engineering Reference for this coil type. Also, use Output:Diagnostics, DisplayExtraWarnings for further guidance.\n   ** Warning ** The Standard Ratings is calculated for Coil:Cooling:DX:SingleSpeed = RES AC|UNIT 6 COOLING COIL but not at the AHRI test condition due to curve out of bound.\n   **   ~~~   **  Review the Standard Ratings calculations in the Engineering Reference for this coil type. Also, use Output:Diagnostics, DisplayExtraWarnings for further guidance.\n   ** Warning ** The Standard Ratings is calculated for Coil:Cooling:DX:SingleSpeed = RES AC|UNIT 7 COOLING COIL but not at the AHRI test condition due to curve out of bound.\n   **   ~~~   **  Review the Standard Ratings calculations in the Engineering Reference for this coil type. Also, use Output:Diagnostics, DisplayExtraWarnings for further guidance.\n   ** Warning ** The Standard Ratings is calculated for Coil:Cooling:DX:SingleSpeed = RES AC|UNIT 8 COOLING COIL but not at the AHRI test condition due to curve out of bound.\n   **   ~~~   **  Review the Standard Ratings calculations in the Engineering Reference for this coil type. Also, use Output:Diagnostics, DisplayExtraWarnings for further guidance.\n   ** Warning ** The Standard Ratings is calculated for Coil:Cooling:DX:SingleSpeed = RES AC|UNIT 9 COOLING COIL but not at the AHRI test condition due to curve out of bound.\n   **   ~~~   **  Review the Standard Ratings calculations in the Engineering Reference for this coil type. Also, use Output:Diagnostics, DisplayExtraWarnings for further guidance.\n   ** Warning ** Check input. Pump nominal power or motor efficiency is set to 0, for pump=PUMP VARIABLE SPEED 1\n   ** Warning ** Check input. Pump nominal power or motor efficiency is set to 0, for pump=PUMP VARIABLE SPEED 10\n   ** Warning ** Check input. Pump nominal power or motor efficiency is set to 0, for pump=PUMP VARIABLE SPEED 11\n   ** Warning ** Check input. Pump nominal power or motor efficiency is set to 0, for pump=PUMP VARIABLE SPEED 12\n   ** Warning ** Check input. Pump nominal power or motor efficiency is set to 0, for pump=PUMP VARIABLE SPEED 13\n   ** Warning ** Check input. Pump nominal power or motor efficiency is set to 0, for pump=PUMP VARIABLE SPEED 14\n   ** Warning ** Check input. Pump nominal power or motor efficiency is set to 0, for pump=PUMP VARIABLE SPEED 15\n   ** Warning ** Check input. Pump nominal power or motor efficiency is set to 0, for pump=PUMP VARIABLE SPEED 16\n   ** Warning ** Check input. Pump nominal power or motor efficiency is set to 0, for pump=PUMP VARIABLE SPEED 17\n   ** Warning ** Check input. Pump nominal power or motor efficiency is set to 0, for pump=PUMP VARIABLE SPEED 18\n   ** Warning ** Check input. Pump nominal power or motor efficiency is set to 0, for pump=PUMP VARIABLE SPEED 19\n   ** Warning ** Check input. Pump nominal power or motor efficiency is set to 0, for pump=PUMP VARIABLE SPEED 2\n   ** Warning ** Check input. Pump nominal power or motor efficiency is set to 0, for pump=PUMP VARIABLE SPEED 20\n   ** Warning ** Check input. Pump nominal power or motor efficiency is set to 0, for pump=PUMP VARIABLE SPEED 21\n   ** Warning ** Check input. Pump nominal power or motor efficiency is set to 0, for pump=PUMP VARIABLE SPEED 22\n   ** Warning ** Check input. Pump nominal power or motor efficiency is set to 0, for pump=PUMP VARIABLE SPEED 23\n   ** Warning ** Check input. Pump nominal power or motor efficiency is set to 0, for pump=PUMP VARIABLE SPEED 24\n   ** Warning ** Check input. Pump nominal power or motor efficiency is set to 0, for pump=PUMP VARIABLE SPEED 3\n   ** Warning ** Check input. Pump nominal power or motor efficiency is set to 0, for pump=PUMP VARIABLE SPEED 4\n   ** Warning ** Check input. Pump nominal power or motor efficiency is set to 0, for pump=PUMP VARIABLE SPEED 5\n   ** Warning ** Check input. Pump nominal power or motor efficiency is set to 0, for pump=PUMP VARIABLE SPEED 6\n   ** Warning ** Check input. Pump nominal power or motor efficiency is set to 0, for pump=PUMP VARIABLE SPEED 7\n   ** Warning ** Check input. Pump nominal power or motor efficiency is set to 0, for pump=PUMP VARIABLE SPEED 8\n   ** Warning ** Check input. Pump nominal power or motor efficiency is set to 0, for pump=PUMP VARIABLE SPEED 9\n   ** Warning ** Missing temperature setpoint for LeavingSetpointModulated mode Boiler named BOILER\n   **   ~~~   **   A temperature setpoint is needed at the outlet node of a boiler in variable flow mode\n   **   ~~~   **   use a Setpoint Manager to establish a setpoint at the boiler outlet node \n   **   ~~~   **   or use an EMS actuator to establish a setpoint at the boiler outlet node \n   **   ~~~   **   The overall loop setpoint will be assumed for Boiler. The simulation continues ... \n   ** Warning ** Output:Meter: invalid Key Name=\"DISTRICTCOOLING:FACILITY\" - not found.\n   ** Warning ** Output:Meter: invalid Key Name=\"DISTRICTHEATING:FACILITY\" - not found.\n   ** Warning ** Output:Meter:MeterFileOnly requested for \"Electricity:Facility\" (TimeStep), already on \"Output:Meter\". Will report to both eplusout.eso and eplusout.mtr\n   ************* Testing Individual Branch Integrity\n   ************* All Branches passed integrity testing\n   ************* Testing Individual Supply Air Path Integrity\n   ************* All Supply Air Paths passed integrity testing\n   ************* Testing Individual Return Air Path Integrity\n   ************* All Return Air Paths passed integrity testing\n   ************* No node connection errors were found.\n   ************* Beginning Simulation\n   ** Warning ** CalcDoe2DXCoil: Coil:Cooling:DX:SingleSpeed=\"RES AC|UNIT 13 COOLING COIL\" - Air volume flow rate per watt of rated total cooling capacity is out of range at 6.941E-005 m3/s/W.\n   **   ~~~   **  Environment=ANN CLG 1% CONDNS DB=>MWB, at Simulation time=07/21 00:00 - 00:10\n   **   ~~~   ** Expected range for VolumeFlowPerRatedTotalCapacity=[2.684E-005--6.713E-005]\n   **   ~~~   ** Possible causes include inconsistent air flow rates in system components,\n   **   ~~~   ** or variable air volume [VAV] system using incorrect coil type.\n   ** Warning ** CalcDoe2DXCoil: Coil:Cooling:DX:SingleSpeed=\"RES AC|UNIT 14 COOLING COIL\" - Air volume flow rate per watt of rated total cooling capacity is out of range at 6.941E-005 m3/s/W.\n   **   ~~~   **  Environment=ANN CLG 1% CONDNS DB=>MWB, at Simulation time=07/21 00:00 - 00:10\n   **   ~~~   ** Expected range for VolumeFlowPerRatedTotalCapacity=[2.684E-005--6.713E-005]\n   **   ~~~   ** Possible causes include inconsistent air flow rates in system components,\n   **   ~~~   ** or variable air volume [VAV] system using incorrect coil type.\n   ** Warning ** CalcDoe2DXCoil: Coil:Cooling:DX:SingleSpeed=\"RES AC|UNIT 15 COOLING COIL\" - Air volume flow rate per watt of rated total cooling capacity is out of range at 6.941E-005 m3/s/W.\n   **   ~~~   **  Environment=ANN CLG 1% CONDNS DB=>MWB, at Simulation time=07/21 00:00 - 00:10\n   **   ~~~   ** Expected range for VolumeFlowPerRatedTotalCapacity=[2.684E-005--6.713E-005]\n   **   ~~~   ** Possible causes include inconsistent air flow rates in system components,\n   **   ~~~   ** or variable air volume [VAV] system using incorrect coil type.\n   ** Warning ** CalcDoe2DXCoil: Coil:Cooling:DX:SingleSpeed=\"RES AC|UNIT 16 COOLING COIL\" - Air volume flow rate per watt of rated total cooling capacity is out of range at 6.941E-005 m3/s/W.\n   **   ~~~   **  Environment=ANN CLG 1% CONDNS DB=>MWB, at Simulation time=07/21 00:00 - 00:10\n   **   ~~~   ** Expected range for VolumeFlowPerRatedTotalCapacity=[2.684E-005--6.713E-005]\n   **   ~~~   ** Possible causes include inconsistent air flow rates in system components,\n   **   ~~~   ** or variable air volume [VAV] system using incorrect coil type.\n   ** Warning ** CalcDoe2DXCoil: Coil:Cooling:DX:SingleSpeed=\"RES AC|UNIT 17 COOLING COIL\" - Air volume flow rate per watt of rated total cooling capacity is out of range at 6.941E-005 m3/s/W.\n   **   ~~~   **  Environment=ANN CLG 1% CONDNS DB=>MWB, at Simulation time=07/21 00:00 - 00:10\n   **   ~~~   ** Expected range for VolumeFlowPerRatedTotalCapacity=[2.684E-005--6.713E-005]\n   **   ~~~   ** Possible causes include inconsistent air flow rates in system components,\n   **   ~~~   ** or variable air volume [VAV] system using incorrect coil type.\n   ** Warning ** CalcDoe2DXCoil: Coil:Cooling:DX:SingleSpeed=\"RES AC|UNIT 18 COOLING COIL\" - Air volume flow rate per watt of rated total cooling capacity is out of range at 6.941E-005 m3/s/W.\n   **   ~~~   **  Environment=ANN CLG 1% CONDNS DB=>MWB, at Simulation time=07/21 00:00 - 00:10\n   **   ~~~   ** Expected range for VolumeFlowPerRatedTotalCapacity=[2.684E-005--6.713E-005]\n   **   ~~~   ** Possible causes include inconsistent air flow rates in system components,\n   **   ~~~   ** or variable air volume [VAV] system using incorrect coil type.\n   ** Warning ** CalcDoe2DXCoil: Coil:Cooling:DX:SingleSpeed=\"RES AC|UNIT 19 COOLING COIL\" - Air volume flow rate per watt of rated total cooling capacity is out of range at 6.941E-005 m3/s/W.\n   **   ~~~   **  Environment=ANN CLG 1% CONDNS DB=>MWB, at Simulation time=07/21 00:00 - 00:10\n   **   ~~~   ** Expected range for VolumeFlowPerRatedTotalCapacity=[2.684E-005--6.713E-005]\n   **   ~~~   ** Possible causes include inconsistent air flow rates in system components,\n   **   ~~~   ** or variable air volume [VAV] system using incorrect coil type.\n   ** Warning ** CalcDoe2DXCoil: Coil:Cooling:DX:SingleSpeed=\"RES AC|UNIT 20 COOLING COIL\" - Air volume flow rate per watt of rated total cooling capacity is out of range at 6.941E-005 m3/s/W.\n   **   ~~~   **  Environment=ANN CLG 1% CONDNS DB=>MWB, at Simulation time=07/21 00:00 - 00:10\n   **   ~~~   ** Expected range for VolumeFlowPerRatedTotalCapacity=[2.684E-005--6.713E-005]\n   **   ~~~   ** Possible causes include inconsistent air flow rates in system components,\n   **   ~~~   ** or variable air volume [VAV] system using incorrect coil type.\n   ** Warning ** CalcDoe2DXCoil: Coil:Cooling:DX:SingleSpeed=\"RES AC|UNIT 21 COOLING COIL\" - Air volume flow rate per watt of rated total cooling capacity is out of range at 6.941E-005 m3/s/W.\n   **   ~~~   **  Environment=ANN CLG 1% CONDNS DB=>MWB, at Simulation time=07/21 00:00 - 00:10\n   **   ~~~   ** Expected range for VolumeFlowPerRatedTotalCapacity=[2.684E-005--6.713E-005]\n   **   ~~~   ** Possible causes include inconsistent air flow rates in system components,\n   **   ~~~   ** or variable air volume [VAV] system using incorrect coil type.\n   ** Warning ** CalcDoe2DXCoil: Coil:Cooling:DX:SingleSpeed=\"RES AC|UNIT 22 COOLING COIL\" - Air volume flow rate per watt of rated total cooling capacity is out of range at 6.941E-005 m3/s/W.\n   **   ~~~   **  Environment=ANN CLG 1% CONDNS DB=>MWB, at Simulation time=07/21 00:00 - 00:10\n   **   ~~~   ** Expected range for VolumeFlowPerRatedTotalCapacity=[2.684E-005--6.713E-005]\n   **   ~~~   ** Possible causes include inconsistent air flow rates in system components,\n   **   ~~~   ** or variable air volume [VAV] system using incorrect coil type.\n   ** Warning ** CalcDoe2DXCoil: Coil:Cooling:DX:SingleSpeed=\"RES AC|UNIT 23 COOLING COIL\" - Air volume flow rate per watt of rated total cooling capacity is out of range at 6.941E-005 m3/s/W.\n   **   ~~~   **  Environment=ANN CLG 1% CONDNS DB=>MWB, at Simulation time=07/21 00:00 - 00:10\n   **   ~~~   ** Expected range for VolumeFlowPerRatedTotalCapacity=[2.684E-005--6.713E-005]\n   **   ~~~   ** Possible causes include inconsistent air flow rates in system components,\n   **   ~~~   ** or variable air volume [VAV] system using incorrect coil type.\n   ** Warning ** CalcDoe2DXCoil: Coil:Cooling:DX:SingleSpeed=\"RES AC|UNIT 24 COOLING COIL\" - Air volume flow rate per watt of rated total cooling capacity is out of range at 6.941E-005 m3/s/W.\n   **   ~~~   **  Environment=ANN CLG 1% CONDNS DB=>MWB, at Simulation time=07/21 00:00 - 00:10\n   **   ~~~   ** Expected range for VolumeFlowPerRatedTotalCapacity=[2.684E-005--6.713E-005]\n   **   ~~~   ** Possible causes include inconsistent air flow rates in system components,\n   **   ~~~   ** or variable air volume [VAV] system using incorrect coil type.\n   ** Warning ** CalcDoe2DXCoil: Coil:Cooling:DX:SingleSpeed \"RES AC|UNIT 10 COOLING COIL\" - Air-cooled condenser inlet dry-bulb temperature below 0 C. Outdoor dry-bulb temperature = -4.27\n   **   ~~~   **  ... Occurrence info = RUN PERIOD 1, 01/05 10:38 - 10:40\n   **   ~~~   ** ... Operation at low ambient temperatures may require special performance curves.\n   ** Warning ** CalcDoe2DXCoil: Coil:Cooling:DX:SingleSpeed \"RES AC|UNIT 4 COOLING COIL\" - Air-cooled condenser inlet dry-bulb temperature below 0 C. Outdoor dry-bulb temperature = -4.27\n   **   ~~~   **  ... Occurrence info = RUN PERIOD 1, 01/05 10:38 - 10:40\n   **   ~~~   ** ... Operation at low ambient temperatures may require special performance curves.\n   ** Warning ** CalcDoe2DXCoil: Coil:Cooling:DX:SingleSpeed \"RES AC|UNIT 6 COOLING COIL\" - Air-cooled condenser inlet dry-bulb temperature below 0 C. Outdoor dry-bulb temperature = -4.27\n   **   ~~~   **  ... Occurrence info = RUN PERIOD 1, 01/05 10:38 - 10:40\n   **   ~~~   ** ... Operation at low ambient temperatures may require special performance curves.\n   ** Warning ** CalcDoe2DXCoil: Coil:Cooling:DX:SingleSpeed \"RES AC|UNIT 8 COOLING COIL\" - Air-cooled condenser inlet dry-bulb temperature below 0 C. Outdoor dry-bulb temperature = -4.27\n   **   ~~~   **  ... Occurrence info = RUN PERIOD 1, 01/05 10:38 - 10:40\n   **   ~~~   ** ... Operation at low ambient temperatures may require special performance curves.\n   ** Warning ** CalcDoe2DXCoil: Coil:Cooling:DX:SingleSpeed \"RES AC|UNIT 3 COOLING COIL\" - Air-cooled condenser inlet dry-bulb temperature below 0 C. Outdoor dry-bulb temperature = -0.20\n   **   ~~~   **  ... Occurrence info = RUN PERIOD 1, 01/21 04:38 - 04:40\n   **   ~~~   ** ... Operation at low ambient temperatures may require special performance curves.\n   ** Warning ** CalcDoe2DXCoil: Coil:Cooling:DX:SingleSpeed \"RES AC|UNIT 5 COOLING COIL\" - Air-cooled condenser inlet dry-bulb temperature below 0 C. Outdoor dry-bulb temperature = -0.20\n   **   ~~~   **  ... Occurrence info = RUN PERIOD 1, 01/21 04:38 - 04:40\n   **   ~~~   ** ... Operation at low ambient temperatures may require special performance curves.\n   ** Warning ** CalcDoe2DXCoil: Coil:Cooling:DX:SingleSpeed \"RES AC|UNIT 7 COOLING COIL\" - Air-cooled condenser inlet dry-bulb temperature below 0 C. Outdoor dry-bulb temperature = -0.20\n   **   ~~~   **  ... Occurrence info = RUN PERIOD 1, 01/21 04:38 - 04:40\n   **   ~~~   ** ... Operation at low ambient temperatures may require special performance curves.\n   ** Warning ** CalcDoe2DXCoil: Coil:Cooling:DX:SingleSpeed \"RES AC|UNIT 9 COOLING COIL\" - Air-cooled condenser inlet dry-bulb temperature below 0 C. Outdoor dry-bulb temperature = -0.20\n   **   ~~~   **  ... Occurrence info = RUN PERIOD 1, 01/21 04:38 - 04:40\n   **   ~~~   ** ... Operation at low ambient temperatures may require special performance curves.\n   ** Warning ** SimHVAC: Maximum iterations (20) exceeded for all HVAC loops, at RUN PERIOD 1, 01/24 19:30 - 19:40\n   **   ~~~   ** The solution for one or more of the Air Loop HVAC systems did not appear to converge\n   **   ~~~   ** ...use Output:Diagnostics,DisplayExtraWarnings; to show more details on each max iteration exceeded.\n   ** Warning ** SimHVAC: Maximum iterations (20) exceeded for all HVAC loops, at RUN PERIOD 1, 02/17 14:00 - 14:10\n   **   ~~~   ** The solution for one or more of the Air Loop HVAC systems did not appear to converge\n   ** Warning ** SimHVAC: Maximum iterations (20) exceeded for all HVAC loops, at RUN PERIOD 1, 02/17 15:00 - 15:10\n   **   ~~~   ** The solution for one or more of the Air Loop HVAC systems did not appear to converge\n   ** Warning ** SimHVAC: Maximum iterations (20) exceeded for all HVAC loops, at RUN PERIOD 1, 02/20 16:30 - 16:40\n   **   ~~~   ** The solution for one or more of the Air Loop HVAC systems did not appear to converge\n   ** Warning ** SimHVAC: Maximum iterations (20) exceeded for all HVAC loops, at RUN PERIOD 1, 03/01 10:40 - 10:50\n   **   ~~~   ** The solution for one or more of the Air Loop HVAC systems did not appear to converge\n   ** Warning ** SimHVAC: Maximum iterations (20) exceeded for all HVAC loops, at RUN PERIOD 1, 03/02 10:38 - 10:40\n   **   ~~~   ** The solution for one or more of the Air Loop HVAC systems did not appear to converge\n   ** Warning ** SimHVAC: Maximum iterations (20) exceeded for all HVAC loops, at RUN PERIOD 1, 03/02 13:25 - 13:30\n   **   ~~~   ** The solution for one or more of the Air Loop HVAC systems did not appear to converge\n   ** Warning ** SimHVAC: Maximum iterations (20) exceeded for all HVAC loops, at RUN PERIOD 1, 03/02 15:00 - 15:10\n   **   ~~~   ** The solution for one or more of the Air Loop HVAC systems did not appear to converge\n   ** Warning ** SimHVAC: Maximum iterations (20) exceeded for all HVAC loops, at RUN PERIOD 1, 03/05 19:40 - 19:50\n   **   ~~~   ** The solution for one or more of the Air Loop HVAC systems did not appear to converge\n   ** Warning ** SimHVAC: Maximum iterations (20) exceeded for all HVAC loops, at RUN PERIOD 1, 03/05 20:30 - 20:40\n   **   ~~~   ** The solution for one or more of the Air Loop HVAC systems did not appear to converge\n   ** Warning ** SimHVAC: Maximum iterations (20) exceeded for all HVAC loops, at RUN PERIOD 1, 03/05 20:50 - 21:00\n   **   ~~~   ** The solution for one or more of the Air Loop HVAC systems did not appear to converge\n   ** Warning ** SimHVAC: Maximum iterations (20) exceeded for all HVAC loops, at RUN PERIOD 1, 03/05 21:20 - 21:30\n   **   ~~~   ** The solution for one or more of the Air Loop HVAC systems did not appear to converge\n   ** Warning ** SimHVAC: Maximum iterations (20) exceeded for all HVAC loops, at RUN PERIOD 1, 03/06 18:13 - 18:17\n   **   ~~~   ** The solution for one or more of the Air Loop HVAC systems did not appear to converge\n   ** Warning ** SimHVAC: Maximum iterations (20) exceeded for all HVAC loops, at RUN PERIOD 1, 03/06 21:50 - 22:00\n   **   ~~~   ** The solution for one or more of the Air Loop HVAC systems did not appear to converge\n   ** Warning ** The resource referenced by LifeCycleCost:UsePriceEscalation= \"U.S. AVG  COMMERCIAL-ELECTRICITY\" has no energy cost. \n   **   ~~~   ** ... It is likely that the wrong resource is used. The resource should match the meter used in Utility:Tariff.\n   ** Warning ** The resource referenced by LifeCycleCost:UsePriceEscalation= \"U.S. AVG  COMMERCIAL-DISTILLATE OIL\" has no energy cost. \n   **   ~~~   ** ... It is likely that the wrong resource is used. The resource should match the meter used in Utility:Tariff.\n   ** Warning ** The resource referenced by LifeCycleCost:UsePriceEscalation= \"U.S. AVG  COMMERCIAL-RESIDUAL OIL\" has no energy cost. \n   **   ~~~   ** ... It is likely that the wrong resource is used. The resource should match the meter used in Utility:Tariff.\n   ** Warning ** The resource referenced by LifeCycleCost:UsePriceEscalation= \"U.S. AVG  COMMERCIAL-NATURAL GAS\" has no energy cost. \n   **   ~~~   ** ... It is likely that the wrong resource is used. The resource should match the meter used in Utility:Tariff.\n   ** Warning ** The resource referenced by LifeCycleCost:UsePriceEscalation= \"U.S. AVG  COMMERCIAL-COAL\" has no energy cost. \n   **   ~~~   ** ... It is likely that the wrong resource is used. The resource should match the meter used in Utility:Tariff.\n   ************* Simulation Error Summary *************\n   ************* There are 3 unused schedules in input.\n   ************* There are 43 unused week schedules in input.\n   ************* There are 27 unused day schedules in input.\n   ************* Use Output:Diagnostics,DisplayUnusedSchedules; to see them.\n   *************\n   ************* ===== Recurring Error Summary =====\n   ************* The following recurring error messages occurred.\n   *************\n   *************  ** Warning ** CalcDoe2DXCoil: Coil:Cooling:DX:SingleSpeed=\"RES AC|UNIT 13 COOLING COIL\" - Air volume flow rate per watt of rated total cooling capacity is out of range error continues...\n   *************  **   ~~~   **   This error occurred 309328 total times;\n   *************  **   ~~~   **   during Warmup 0 times;\n   *************  **   ~~~   **   during Sizing 0 times.\n   *************  **   ~~~   **   Max=7.049931E-005  Min=6.713431E-005\n   *************\n   *************  ** Warning ** CalcDoe2DXCoil: Coil:Cooling:DX:SingleSpeed=\"RES AC|UNIT 14 COOLING COIL\" - Air volume flow rate per watt of rated total cooling capacity is out of range error continues...\n   *************  **   ~~~   **   This error occurred 288959 total times;\n   *************  **   ~~~   **   during Warmup 0 times;\n   *************  **   ~~~   **   during Sizing 0 times.\n   *************  **   ~~~   **   Max=7.047865E-005  Min=6.713163E-005\n   *************\n   *************  ** Warning ** CalcDoe2DXCoil: Coil:Cooling:DX:SingleSpeed=\"RES AC|UNIT 15 COOLING COIL\" - Air volume flow rate per watt of rated total cooling capacity is out of range error continues...\n   *************  **   ~~~   **   This error occurred 493879 total times;\n   *************  **   ~~~   **   during Warmup 0 times;\n   *************  **   ~~~   **   during Sizing 0 times.\n   *************  **   ~~~   **   Max=7.078750E-005  Min=6.713080E-005\n   *************\n   *************  ** Warning ** CalcDoe2DXCoil: Coil:Cooling:DX:SingleSpeed=\"RES AC|UNIT 16 COOLING COIL\" - Air volume flow rate per watt of rated total cooling capacity is out of range error continues...\n   *************  **   ~~~   **   This error occurred 477102 total times;\n   *************  **   ~~~   **   during Warmup 0 times;\n   *************  **   ~~~   **   during Sizing 0 times.\n   *************  **   ~~~   **   Max=7.079332E-005  Min=6.713000E-005\n   *************\n   *************  ** Warning ** CalcDoe2DXCoil: Coil:Cooling:DX:SingleSpeed=\"RES AC|UNIT 17 COOLING COIL\" - Air volume flow rate per watt of rated total cooling capacity is out of range error continues...\n   *************  **   ~~~   **   This error occurred 532071 total times;\n   *************  **   ~~~   **   during Warmup 0 times;\n   *************  **   ~~~   **   during Sizing 0 times.\n   *************  **   ~~~   **   Max=7.080134E-005  Min=6.713076E-005\n   *************\n   *************  ** Warning ** CalcDoe2DXCoil: Coil:Cooling:DX:SingleSpeed=\"RES AC|UNIT 18 COOLING COIL\" - Air volume flow rate per watt of rated total cooling capacity is out of range error continues...\n   *************  **   ~~~   **   This error occurred 530592 total times;\n   *************  **   ~~~   **   during Warmup 0 times;\n   *************  **   ~~~   **   during Sizing 0 times.\n   *************  **   ~~~   **   Max=7.078719E-005  Min=6.713047E-005\n   *************\n   *************  ** Warning ** CalcDoe2DXCoil: Coil:Cooling:DX:SingleSpeed=\"RES AC|UNIT 19 COOLING COIL\" - Air volume flow rate per watt of rated total cooling capacity is out of range error continues...\n   *************  **   ~~~   **   This error occurred 541771 total times;\n   *************  **   ~~~   **   during Warmup 0 times;\n   *************  **   ~~~   **   during Sizing 0 times.\n   *************  **   ~~~   **   Max=7.079888E-005  Min=6.713038E-005\n   *************\n   *************  ** Warning ** CalcDoe2DXCoil: Coil:Cooling:DX:SingleSpeed=\"RES AC|UNIT 20 COOLING COIL\" - Air volume flow rate per watt of rated total cooling capacity is out of range error continues...\n   *************  **   ~~~   **   This error occurred 551451 total times;\n   *************  **   ~~~   **   during Warmup 0 times;\n   *************  **   ~~~   **   during Sizing 0 times.\n   *************  **   ~~~   **   Max=7.079217E-005  Min=6.713041E-005\n   *************\n   *************  ** Warning ** CalcDoe2DXCoil: Coil:Cooling:DX:SingleSpeed=\"RES AC|UNIT 21 COOLING COIL\" - Air volume flow rate per watt of rated total cooling capacity is out of range error continues...\n   *************  **   ~~~   **   This error occurred 487648 total times;\n   *************  **   ~~~   **   during Warmup 0 times;\n   *************  **   ~~~   **   during Sizing 0 times.\n   *************  **   ~~~   **   Max=7.078584E-005  Min=6.713089E-005\n   *************\n   *************  ** Warning ** CalcDoe2DXCoil: Coil:Cooling:DX:SingleSpeed=\"RES AC|UNIT 22 COOLING COIL\" - Air volume flow rate per watt of rated total cooling capacity is out of range error continues...\n   *************  **   ~~~   **   This error occurred 479611 total times;\n   *************  **   ~~~   **   during Warmup 0 times;\n   *************  **   ~~~   **   during Sizing 0 times.\n   *************  **   ~~~   **   Max=7.078701E-005  Min=6.713047E-005\n   *************\n   *************  ** Warning ** CalcDoe2DXCoil: Coil:Cooling:DX:SingleSpeed=\"RES AC|UNIT 23 COOLING COIL\" - Air volume flow rate per watt of rated total cooling capacity is out of range error continues...\n   *************  **   ~~~   **   This error occurred 339397 total times;\n   *************  **   ~~~   **   during Warmup 0 times;\n   *************  **   ~~~   **   during Sizing 0 times.\n   *************  **   ~~~   **   Max=7.049797E-005  Min=6.713305E-005\n   *************\n   *************  ** Warning ** CalcDoe2DXCoil: Coil:Cooling:DX:SingleSpeed=\"RES AC|UNIT 24 COOLING COIL\" - Air volume flow rate per watt of rated total cooling capacity is out of range error continues...\n   *************  **   ~~~   **   This error occurred 325491 total times;\n   *************  **   ~~~   **   during Warmup 0 times;\n   *************  **   ~~~   **   during Sizing 0 times.\n   *************  **   ~~~   **   Max=7.046344E-005  Min=6.713292E-005\n   *************\n   *************  ** Warning ** CalcDoe2DXCoil: Coil:Cooling:DX:SingleSpeed=\"RES AC|UNIT 10 COOLING COIL\" - Low condenser dry-bulb temperature error continues...\n   *************  **   ~~~   **   This error occurred 15 total times;\n   *************  **   ~~~   **   during Warmup 0 times;\n   *************  **   ~~~   **   during Sizing 0 times.\n   *************  **   ~~~   **   Max=-0.1 [C]  Min=-4.966667 [C]\n   *************\n   *************  ** Warning ** CalcDoe2DXCoil: Coil:Cooling:DX:SingleSpeed=\"RES AC|UNIT 4 COOLING COIL\" - Low condenser dry-bulb temperature error continues...\n   *************  **   ~~~   **   This error occurred 15 total times;\n   *************  **   ~~~   **   during Warmup 0 times;\n   *************  **   ~~~   **   during Sizing 0 times.\n   *************  **   ~~~   **   Max=-0.1 [C]  Min=-4.966667 [C]\n   *************\n   *************  ** Warning ** CalcDoe2DXCoil: Coil:Cooling:DX:SingleSpeed=\"RES AC|UNIT 6 COOLING COIL\" - Low condenser dry-bulb temperature error continues...\n   *************  **   ~~~   **   This error occurred 15 total times;\n   *************  **   ~~~   **   during Warmup 0 times;\n   *************  **   ~~~   **   during Sizing 0 times.\n   *************  **   ~~~   **   Max=-0.1 [C]  Min=-4.966667 [C]\n   *************\n   *************  ** Warning ** CalcDoe2DXCoil: Coil:Cooling:DX:SingleSpeed=\"RES AC|UNIT 8 COOLING COIL\" - Low condenser dry-bulb temperature error continues...\n   *************  **   ~~~   **   This error occurred 15 total times;\n   *************  **   ~~~   **   during Warmup 0 times;\n   *************  **   ~~~   **   during Sizing 0 times.\n   *************  **   ~~~   **   Max=-0.1 [C]  Min=-4.966667 [C]\n   *************\n   *************  ** Warning ** CalcDoe2DXCoil: Coil:Cooling:DX:SingleSpeed=\"RES AC|UNIT 3 COOLING COIL\" - Low condenser dry-bulb temperature error continues...\n   *************  **   ~~~   **   This error occurred 10 total times;\n   *************  **   ~~~   **   during Warmup 0 times;\n   *************  **   ~~~   **   during Sizing 0 times.\n   *************  **   ~~~   **   Max=-0.1 [C]  Min=-1.7 [C]\n   *************\n   *************  ** Warning ** CalcDoe2DXCoil: Coil:Cooling:DX:SingleSpeed=\"RES AC|UNIT 5 COOLING COIL\" - Low condenser dry-bulb temperature error continues...\n   *************  **   ~~~   **   This error occurred 10 total times;\n   *************  **   ~~~   **   during Warmup 0 times;\n   *************  **   ~~~   **   during Sizing 0 times.\n   *************  **   ~~~   **   Max=-0.1 [C]  Min=-1.7 [C]\n   *************\n   *************  ** Warning ** CalcDoe2DXCoil: Coil:Cooling:DX:SingleSpeed=\"RES AC|UNIT 7 COOLING COIL\" - Low condenser dry-bulb temperature error continues...\n   *************  **   ~~~   **   This error occurred 10 total times;\n   *************  **   ~~~   **   during Warmup 0 times;\n   *************  **   ~~~   **   during Sizing 0 times.\n   *************  **   ~~~   **   Max=-0.1 [C]  Min=-1.7 [C]\n   *************\n   *************  ** Warning ** CalcDoe2DXCoil: Coil:Cooling:DX:SingleSpeed=\"RES AC|UNIT 9 COOLING COIL\" - Low condenser dry-bulb temperature error continues...\n   *************  **   ~~~   **   This error occurred 10 total times;\n   *************  **   ~~~   **   during Warmup 0 times;\n   *************  **   ~~~   **   during Sizing 0 times.\n   *************  **   ~~~   **   Max=-0.1 [C]  Min=-1.7 [C]\n   *************\n   *************  ** Warning ** SimHVAC: Exceeding Maximum iterations for all HVAC loops, during RUN PERIOD 1 continues\n   *************  **   ~~~   **   This error occurred 474 total times;\n   *************  **   ~~~   **   during Warmup 0 times;\n   *************  **   ~~~   **   during Sizing 0 times.\n   *************\n   *************\n   ************* ===== Final Error Summary =====\n   ************* The following error categories occurred.  Consider correcting or noting.\n   ************* Nominally Unused Constructions\n   ************* ..The nominally unused constructions warning is provided to alert you to potential conditions that can cause\n   ************* ..extra time during simulation. Each construction is calculated by the algorithm indicated in the HeatBalanceAlgorithm\n   ************* ..object. You may remove the constructions indicated (when you use the DisplayExtraWarnings option).\n   *************\n   ************* EnergyPlus Warmup Error Summary. During Warmup: 0 Warning; 0 Severe Errors.\n   ************* EnergyPlus Sizing Error Summary. During Sizing: 3 Warning; 0 Severe Errors.\n   ************* EnergyPlus Completed Successfully-- 5357948 Warning; 0 Severe Errors; Elapsed Time=00hr 05min 39.49sec\n",
   "file_paths" : [
      "C:/Users/aspeake/Documents/OpenStudio-BuildStock/workflows/singleunit_osw/generated_files",
      "./files",
      "./weather",
      "../../files",
      "../../weather",
      "./"
   ],
   "hash" : "C47E7CC2",
   "measure_paths" : [ "../../measures", "../../resources/measures" ],
   "started_at" : "20191220T161458Z",
   "steps" : [
      {
         "arguments" : {
            "dst_end_date" : "October 26",
            "dst_start_date" : "April 7",
            "weather_directory" : "../HPXMLtoOpenStudio/weather",
            "weather_file_name" : "USA_NY_New.York-J.F.Kennedy.Intl.AP.744860_TMY3.epw"
         },
         "measure_dir_name" : "ResidentialLocation",
         "result" : {
            "completed_at" : "20191220T161459Z",
            "measure_class_name" : "SetResidentialEPWFile",
            "measure_display_name" : "Set Residential Location",
            "measure_name" : "set_residential_epw_file",
            "measure_taxonomy" : "Whole Building.Space Types",
            "measure_type" : "ModelMeasure",
            "measure_uid" : "16ac2c0c-6177-4bf2-91a5-1b6e8de4e85b",
            "measure_version_id" : "f89321a2-46dc-44ba-a139-698350046035",
            "measure_version_modified" : "20190701T173021Z",
            "measure_xml_checksum" : "D8922A73",
            "started_at" : "20191220T161458Z",
            "stderr" : "",
            "stdout" : "",
            "step_errors" : [],
            "step_files" : [],
            "step_final_condition" : "The weather file path is 'C:/Users/aspeake/Documents/OpenStudio-BuildStock/resources/measures/HPXMLtoOpenStudio/weather/USA_NY_New.York-J.F.Kennedy.Intl.AP.744860_TMY3.epw'.",
            "step_info" : [
               "Setting weather file.",
               "Setting site data.",
               "Setting Building America climate zone to Mixed-Humid.",
               "Setting mains water temperature profile.",
               "Set daylight saving time from 2009-Apr-07 to 2009-Oct-26."
            ],
            "step_result" : "Success",
            "step_values" : [
               {
                  "name" : "weather_directory",
                  "value" : "../HPXMLtoOpenStudio/weather"
               },
               {
                  "name" : "weather_file_name",
                  "value" : "USA_NY_New.York-J.F.Kennedy.Intl.AP.744860_TMY3.epw"
               },
               {
                  "name" : "dst_start_date",
                  "value" : "April 7"
               },
               {
                  "name" : "dst_end_date",
                  "value" : "October 26"
               }
            ],
            "step_warnings" : []
         }
      },
      {
         "arguments" : {
            "balcony_depth" : "0",
            "corridor_position" : "Double-Loaded Interior",
            "corridor_width" : "10",
            "eaves_depth" : "2",
            "foundation_height" : "0",
            "foundation_type" : "slab",
            "inset_depth" : "0",
            "inset_position" : "Right",
            "inset_width" : "0",
            "minimal_collapsed" : "false",
            "neighbor_back_offset" : "0",
            "neighbor_front_offset" : "0",
            "neighbor_left_offset" : "12",
            "neighbor_right_offset" : "12",
            "num_bathrooms" : "1.5",
            "num_bedrooms" : "3",
            "num_floors" : "2",
            "num_occupants" : "auto",
            "num_units" : "24",
            "occupants_monthly_sch" : "1.0, 1.0, 1.0, 1.0, 1.0, 1.0, 1.0, 1.0, 1.0, 1.0, 1.0, 1.0",
            "occupants_weekday_sch" : "1.00, 1.00, 1.00, 1.00, 1.00, 1.00, 1.00, 0.88, 0.41, 0.24, 0.24, 0.24, 0.24, 0.24, 0.24, 0.24, 0.29, 0.55, 0.90, 0.90, 0.90, 1.00, 1.00, 1.00",
            "occupants_weekend_sch" : "1.00, 1.00, 1.00, 1.00, 1.00, 1.00, 1.00, 0.88, 0.41, 0.24, 0.24, 0.24, 0.24, 0.24, 0.24, 0.24, 0.29, 0.55, 0.90, 0.90, 0.90, 1.00, 1.00, 1.00",
            "orientation" : "90",
            "unit_aspect_ratio" : "1.8",
            "unit_ffa" : "500",
            "wall_height" : "8"
         },
         "measure_dir_name" : "ResidentialGeometryCreateMultifamily_master",
         "result" : {
            "completed_at" : "20191220T161501Z",
            "measure_class_name" : "CreateResidentialMultifamilyGeometry",
            "measure_display_name" : "Create Residential Multifamily Geometry",
            "measure_name" : "create_residential_multifamily_geometry",
            "measure_taxonomy" : "Envelope.Form",
            "measure_type" : "ModelMeasure",
            "measure_uid" : "9bc07973-98a4-46fc-b643-e280628817c5",
            "measure_version_id" : "57418f4c-8699-4ebe-aa3c-0e709c23ced7",
            "measure_version_modified" : "20190701T173018Z",
            "measure_xml_checksum" : "2AF3A68E",
            "started_at" : "20191220T161459Z",
            "stderr" : "",
            "stdout" : "[openstudio.model.YearDescription] <1> 'UseWeatherFile' is not yet a supported option for YearDescription\n",
            "step_errors" : [],
            "step_files" : [],
            "step_final_condition" : "The building finished with 26 spaces.",
            "step_info" : [
               "The 24-unit building will be modeled using 24 building units.",
               "Unit '0' has been assigned 3 bedroom(s) and 1.5 bathroom(s).",
               "Unit '1' has been assigned 3 bedroom(s) and 1.5 bathroom(s).",
               "Unit '2' has been assigned 3 bedroom(s) and 1.5 bathroom(s).",
               "Unit '3' has been assigned 3 bedroom(s) and 1.5 bathroom(s).",
               "Unit '4' has been assigned 3 bedroom(s) and 1.5 bathroom(s).",
               "Unit '5' has been assigned 3 bedroom(s) and 1.5 bathroom(s).",
               "Unit '6' has been assigned 3 bedroom(s) and 1.5 bathroom(s).",
               "Unit '7' has been assigned 3 bedroom(s) and 1.5 bathroom(s).",
               "Unit '8' has been assigned 3 bedroom(s) and 1.5 bathroom(s).",
               "Unit '9' has been assigned 3 bedroom(s) and 1.5 bathroom(s).",
               "Unit '10' has been assigned 3 bedroom(s) and 1.5 bathroom(s).",
               "Unit '11' has been assigned 3 bedroom(s) and 1.5 bathroom(s).",
               "Unit '12' has been assigned 3 bedroom(s) and 1.5 bathroom(s).",
               "Unit '13' has been assigned 3 bedroom(s) and 1.5 bathroom(s).",
               "Unit '14' has been assigned 3 bedroom(s) and 1.5 bathroom(s).",
               "Unit '15' has been assigned 3 bedroom(s) and 1.5 bathroom(s).",
               "Unit '16' has been assigned 3 bedroom(s) and 1.5 bathroom(s).",
               "Unit '17' has been assigned 3 bedroom(s) and 1.5 bathroom(s).",
               "Unit '18' has been assigned 3 bedroom(s) and 1.5 bathroom(s).",
               "Unit '19' has been assigned 3 bedroom(s) and 1.5 bathroom(s).",
               "Unit '20' has been assigned 3 bedroom(s) and 1.5 bathroom(s).",
               "Unit '21' has been assigned 3 bedroom(s) and 1.5 bathroom(s).",
               "Unit '22' has been assigned 3 bedroom(s) and 1.5 bathroom(s).",
               "Unit '23' has been assigned 3 bedroom(s) and 1.5 bathroom(s).",
               "The building has been assigned 72 bedroom(s) and 36.0 bathroom(s) across 24 unit(s).",
               "unit 1 has been assigned 3.39 occupant(s) for space 'living space'.",
               "unit 2 has been assigned 3.39 occupant(s) for space 'living space|unit 2'.",
               "unit 3 has been assigned 3.39 occupant(s) for space 'living space|unit 3|story 1'.",
               "unit 4 has been assigned 3.39 occupant(s) for space 'living space|unit 4|story 1'.",
               "unit 5 has been assigned 3.39 occupant(s) for space 'living space|unit 5|story 1'.",
               "unit 6 has been assigned 3.39 occupant(s) for space 'living space|unit 6|story 1'.",
               "unit 7 has been assigned 3.39 occupant(s) for space 'living space|unit 7|story 1'.",
               "unit 8 has been assigned 3.39 occupant(s) for space 'living space|unit 8|story 1'.",
               "unit 9 has been assigned 3.39 occupant(s) for space 'living space|unit 9|story 1'.",
               "unit 10 has been assigned 3.39 occupant(s) for space 'living space|unit 10|story 1'.",
               "unit 11 has been assigned 3.39 occupant(s) for space 'living space|unit 11|story 1'.",
               "unit 12 has been assigned 3.39 occupant(s) for space 'living space|unit 12|story 1'.",
               "unit 13 has been assigned 3.39 occupant(s) for space 'living space|unit 13|story 1'.",
               "unit 14 has been assigned 3.39 occupant(s) for space 'living space|unit 14|story 1'.",
               "unit 15 has been assigned 3.39 occupant(s) for space 'living space|unit 15|story 1'.",
               "unit 16 has been assigned 3.39 occupant(s) for space 'living space|unit 16|story 1'.",
               "unit 17 has been assigned 3.39 occupant(s) for space 'living space|unit 17|story 1'.",
               "unit 18 has been assigned 3.39 occupant(s) for space 'living space|unit 18|story 1'.",
               "unit 19 has been assigned 3.39 occupant(s) for space 'living space|unit 19|story 1'.",
               "unit 20 has been assigned 3.39 occupant(s) for space 'living space|unit 20|story 1'.",
               "unit 21 has been assigned 3.39 occupant(s) for space 'living space|unit 21|story 1'.",
               "unit 22 has been assigned 3.39 occupant(s) for space 'living space|unit 22|story 1'.",
               "unit 23 has been assigned 3.39 occupant(s) for space 'living space|unit 23|story 1'.",
               "unit 24 has been assigned 3.39 occupant(s) for space 'living space|unit 24|story 1'.",
               "The building has been assigned 81.36 occupant(s) across 24 unit(s).",
               "Added 18 res eaves.",
               "Added 2 res neighbors shading surfaces.",
               "The building's initial orientation was 0.0 azimuth.",
               "The building's final orientation was 90.0 azimuth."
            ],
            "step_initial_condition" : "The building started with 0 spaces.",
            "step_result" : "Success",
            "step_values" : [
               {
                  "name" : "unit_ffa",
                  "value" : 500
               },
               {
                  "name" : "wall_height",
                  "value" : 8
               },
               {
                  "name" : "num_floors",
                  "value" : 2
               },
               {
                  "name" : "num_units",
                  "value" : 24
               },
               {
                  "name" : "unit_aspect_ratio",
                  "value" : 1.8
               },
               {
                  "name" : "corridor_position",
                  "value" : "Double-Loaded Interior"
               },
               {
                  "name" : "corridor_width",
                  "value" : 10
               },
               {
                  "name" : "inset_width",
                  "value" : 0
               },
               {
                  "name" : "inset_depth",
                  "value" : 0
               },
               {
                  "name" : "inset_position",
                  "value" : "Right"
               },
               {
                  "name" : "balcony_depth",
                  "value" : 0
               },
               {
                  "name" : "foundation_type",
                  "value" : "slab"
               },
               {
                  "name" : "foundation_height",
                  "value" : 0
               },
               {
                  "name" : "eaves_depth",
                  "value" : 2
               },
               {
                  "name" : "num_bedrooms",
                  "value" : "3"
               },
               {
                  "name" : "num_bathrooms",
                  "value" : "1.5"
               },
               {
                  "name" : "num_occupants",
                  "value" : "auto"
               },
               {
                  "name" : "occupants_weekday_sch",
                  "value" : "1.00, 1.00, 1.00, 1.00, 1.00, 1.00, 1.00, 0.88, 0.41, 0.24, 0.24, 0.24, 0.24, 0.24, 0.24, 0.24, 0.29, 0.55, 0.90, 0.90, 0.90, 1.00, 1.00, 1.00"
               },
               {
                  "name" : "occupants_weekend_sch",
                  "value" : "1.00, 1.00, 1.00, 1.00, 1.00, 1.00, 1.00, 0.88, 0.41, 0.24, 0.24, 0.24, 0.24, 0.24, 0.24, 0.24, 0.29, 0.55, 0.90, 0.90, 0.90, 1.00, 1.00, 1.00"
               },
               {
                  "name" : "occupants_monthly_sch",
                  "value" : "1.0, 1.0, 1.0, 1.0, 1.0, 1.0, 1.0, 1.0, 1.0, 1.0, 1.0, 1.0"
               },
               {
                  "name" : "neighbor_left_offset",
                  "value" : 12
               },
               {
                  "name" : "neighbor_right_offset",
                  "value" : 12
               },
               {
                  "name" : "neighbor_back_offset",
                  "value" : 0
               },
               {
                  "name" : "neighbor_front_offset",
                  "value" : 0
               },
               {
                  "name" : "orientation",
                  "value" : 90
               },
               {
                  "name" : "minimal_collapsed",
                  "value" : false
               }
            ],
            "step_warnings" : []
         }
      },
      {
         "arguments" : {
            "door_area" : "20"
         },
         "measure_dir_name" : "ResidentialGeometryDoorArea",
         "result" : {
            "completed_at" : "20191220T161501Z",
            "measure_class_name" : "CreateResidentialDoorArea",
            "measure_display_name" : "Set Residential Door Area",
            "measure_name" : "create_residential_door_area",
            "measure_taxonomy" : "Envelope.Fenestration",
            "measure_type" : "ModelMeasure",
            "measure_uid" : "901a04ee-99d4-42b3-91e1-b5b97970f441",
            "measure_version_id" : "7128d456-5773-4c86-930c-a409ed3b9ea9",
            "measure_version_modified" : "20190701T173018Z",
            "measure_xml_checksum" : "9C8A26EB",
            "started_at" : "20191220T161501Z",
            "stderr" : "",
            "stdout" : "",
            "step_errors" : [],
            "step_files" : [],
            "step_final_condition" : "The building has been assigned 480.0 ft^2 total door area.",
            "step_info" : [
               "For unit 1 added 20.0 ft^2 door.",
               "For unit 2 added 20.0 ft^2 door.",
               "For unit 3 added 20.0 ft^2 door.",
               "For unit 4 added 20.0 ft^2 door.",
               "For unit 5 added 20.0 ft^2 door.",
               "For unit 6 added 20.0 ft^2 door.",
               "For unit 7 added 20.0 ft^2 door.",
               "For unit 8 added 20.0 ft^2 door.",
               "For unit 9 added 20.0 ft^2 door.",
               "For unit 10 added 20.0 ft^2 door.",
               "For unit 11 added 20.0 ft^2 door.",
               "For unit 12 added 20.0 ft^2 door.",
               "For unit 13 added 20.0 ft^2 door.",
               "For unit 14 added 20.0 ft^2 door.",
               "For unit 15 added 20.0 ft^2 door.",
               "For unit 16 added 20.0 ft^2 door.",
               "For unit 17 added 20.0 ft^2 door.",
               "For unit 18 added 20.0 ft^2 door.",
               "For unit 19 added 20.0 ft^2 door.",
               "For unit 20 added 20.0 ft^2 door.",
               "For unit 21 added 20.0 ft^2 door.",
               "For unit 22 added 20.0 ft^2 door.",
               "For unit 23 added 20.0 ft^2 door.",
               "For unit 24 added 20.0 ft^2 door."
            ],
            "step_result" : "Success",
            "step_values" : [
               {
                  "name" : "door_area",
                  "value" : 20
               }
            ],
            "step_warnings" : []
         }
      },
      {
         "arguments" : {
            "back_skylight_area" : "0",
            "back_window_area" : "0",
            "back_wwr" : "0.15",
            "front_skylight_area" : "0",
            "front_window_area" : "0",
            "front_wwr" : "0.15",
            "left_skylight_area" : "0",
            "left_window_area" : "0",
            "left_wwr" : "0.15",
            "overhang_back_facade" : "false",
            "overhang_depth" : "0",
            "overhang_front_facade" : "false",
            "overhang_left_facade" : "false",
            "overhang_offset" : "0",
            "overhang_right_facade" : "false",
            "right_skylight_area" : "0",
            "right_window_area" : "0",
            "right_wwr" : "0.15",
            "window_aspect_ratio" : "1.333"
         },
         "measure_dir_name" : "ResidentialGeometryWindowSkylightArea",
         "result" : {
            "completed_at" : "20191220T161501Z",
            "measure_class_name" : "SetResidentialWindowSkylightArea",
            "measure_display_name" : "Set Residential Window/Skylight Area",
            "measure_name" : "set_residential_window_skylight_area",
            "measure_taxonomy" : "Envelope.Fenestration",
            "measure_type" : "ModelMeasure",
            "measure_uid" : "d05f5b32-1ad6-4c3d-964a-0dbd49a7fde8",
            "measure_version_id" : "d45b34bc-df3c-4ebc-81e8-a15133972cc7",
            "measure_version_modified" : "20190701T173018Z",
            "measure_xml_checksum" : "9014E219",
            "started_at" : "20191220T161501Z",
            "stderr" : "",
            "stdout" : "",
            "step_errors" : [],
            "step_files" : [],
            "step_final_condition" : "The building has been assigned 768.0 ft^2 total window area, and 0.0 ft^2 total skylight area.",
            "step_info" : [
               "Added 2 window(s), totaling 20.0 ft^2, to Surface 14.",
               "Added 2 window(s), totaling 20.0 ft^2, to Surface 5.",
               "Added 2 window(s), totaling 20.0 ft^2, to Surface 26.",
               "Added 2 window(s), totaling 20.0 ft^2, to Surface 50.",
               "Added 2 window(s), totaling 20.0 ft^2, to Surface 38.",
               "Added 2 window(s), totaling 20.0 ft^2, to Surface 62.",
               "Added 2 window(s), totaling 20.0 ft^2, to Surface 74.",
               "Added 2 window(s), totaling 20.0 ft^2, to Surface 98.",
               "Added 2 window(s), totaling 20.0 ft^2, to Surface 86.",
               "Added 2 window(s), totaling 20.0 ft^2, to Surface 110.",
               "Added 2 window(s), totaling 20.0 ft^2, to Surface 122.",
               "Added 2 window(s), totaling 20.0 ft^2, to Surface 134.",
               "Added 2 window(s), totaling 20.0 ft^2, to Surface 20.",
               "Added 2 window(s), totaling 20.0 ft^2, to Surface 9.",
               "Added 2 window(s), totaling 20.0 ft^2, to Surface 32.",
               "Added 2 window(s), totaling 20.0 ft^2, to Surface 140.",
               "Added 2 window(s), totaling 20.0 ft^2, to Surface 44.",
               "Added 2 window(s), totaling 20.0 ft^2, to Surface 56.",
               "Added 2 window(s), totaling 20.0 ft^2, to Surface 128.",
               "Added 2 window(s), totaling 20.0 ft^2, to Surface 68.",
               "Added 2 window(s), totaling 20.0 ft^2, to Surface 80.",
               "Added 2 window(s), totaling 20.0 ft^2, to Surface 104.",
               "Added 2 window(s), totaling 20.0 ft^2, to Surface 92.",
               "Added 2 window(s), totaling 20.0 ft^2, to Surface 116.",
               "Added 3 window(s), totaling 36.0 ft^2, to Surface 2.",
               "Added 3 window(s), totaling 36.0 ft^2, to Surface 8.",
               "Added 3 window(s), totaling 36.0 ft^2, to Surface 78.",
               "Added 3 window(s), totaling 36.0 ft^2, to Surface 82.",
               "Added 3 window(s), totaling 36.0 ft^2, to Surface 144.",
               "Added 3 window(s), totaling 36.0 ft^2, to Surface 65.",
               "Added 3 window(s), totaling 36.0 ft^2, to Surface 72.",
               "Added 3 window(s), totaling 36.0 ft^2, to Surface 137.",
               "No res overhangs to be added."
            ],
            "step_result" : "Success",
            "step_values" : [
               {
                  "name" : "front_wwr",
                  "value" : 0.14999999999999999
               },
               {
                  "name" : "back_wwr",
                  "value" : 0.14999999999999999
               },
               {
                  "name" : "left_wwr",
                  "value" : 0.14999999999999999
               },
               {
                  "name" : "right_wwr",
                  "value" : 0.14999999999999999
               },
               {
                  "name" : "front_window_area",
                  "value" : 0
               },
               {
                  "name" : "back_window_area",
                  "value" : 0
               },
               {
                  "name" : "left_window_area",
                  "value" : 0
               },
               {
                  "name" : "right_window_area",
                  "value" : 0
               },
               {
                  "name" : "window_aspect_ratio",
                  "value" : 1.333
               },
               {
                  "name" : "overhang_depth",
                  "value" : 0
               },
               {
                  "name" : "overhang_offset",
                  "value" : 0
               },
               {
                  "name" : "overhang_front_facade",
                  "value" : false
               },
               {
                  "name" : "overhang_back_facade",
                  "value" : false
               },
               {
                  "name" : "overhang_left_facade",
                  "value" : false
               },
               {
                  "name" : "overhang_right_facade",
                  "value" : false
               },
               {
                  "name" : "front_skylight_area",
                  "value" : 0
               },
               {
                  "name" : "back_skylight_area",
                  "value" : 0
               },
               {
                  "name" : "left_skylight_area",
                  "value" : 0
               },
               {
                  "name" : "right_skylight_area",
                  "value" : 0
               }
            ],
            "step_warnings" : []
         }
      },
      {
         "arguments" : {
            "ceiling_drywall_thick_in" : "0.5",
            "ceiling_framing_factor" : "0.07",
            "ceiling_ins_thick_in" : "14.01",
            "ceiling_install_grade" : "1",
            "ceiling_joist_height_in" : "3.5",
            "ceiling_r" : "38",
            "has_radiant_barrier" : "false",
            "roof_cavity_ins_thick_in" : "0",
            "roof_cavity_r" : "0",
            "roof_framing_factor" : "0.07",
            "roof_framing_thick_in" : "7.25",
            "roof_install_grade" : "1",
            "roof_osb_thick_in" : "0.75",
            "roof_rigid_r" : "0",
            "roofing_material" : "Asphalt Shingles, Medium"
         },
         "measure_dir_name" : "ResidentialConstructionsUnfinishedAttic",
         "result" : {
            "completed_at" : "20191220T161501Z",
            "measure_class_name" : "ProcessConstructionsUnfinishedAttic",
            "measure_display_name" : "Set Residential Unfinished Attic Constructions",
            "measure_name" : "process_constructions_unfinished_attic",
            "measure_taxonomy" : "Envelope.Opaque",
            "measure_type" : "ModelMeasure",
            "measure_uid" : "235ba3ce-dd83-4287-aa0e-435dc1cbf1a7",
            "measure_version_id" : "8412a1a0-7251-42a2-832d-739109948bdf",
            "measure_version_modified" : "20190701T173017Z",
            "measure_xml_checksum" : "1E963D9C",
            "started_at" : "20191220T161501Z",
            "stderr" : "",
            "stdout" : "",
            "step_errors" : [],
            "step_files" : [],
            "step_info" : [
               "Material 'Asphalt Shingles, Medium' was created.",
               "Material 'RoofSheathing' was created.",
               "Material 'RoofStudAndAirRoof' was created.",
               "Construction 'RoofUnfinUninsExt' was created with 3 materials (Asphalt Shingles, Medium | RoofSheathing | RoofStudAndAirRoof).",
               "Surface 'Surface 150' has been assigned construction 'RoofUnfinUninsExt'.",
               "Surface 'Surface 151' has been assigned construction 'RoofUnfinUninsExt'."
            ],
            "step_result" : "Success",
            "step_values" : [
               {
                  "name" : "ceiling_r",
                  "value" : 38
               },
               {
                  "name" : "ceiling_install_grade",
                  "value" : "1"
               },
               {
                  "name" : "ceiling_ins_thick_in",
                  "value" : 14.01
               },
               {
                  "name" : "ceiling_framing_factor",
                  "value" : 0.070000000000000007
               },
               {
                  "name" : "ceiling_joist_height_in",
                  "value" : 3.5
               },
               {
                  "name" : "ceiling_drywall_thick_in",
                  "value" : 0.5
               },
               {
                  "name" : "roof_cavity_r",
                  "value" : 0
               },
               {
                  "name" : "roof_install_grade",
                  "value" : "1"
               },
               {
                  "name" : "roof_cavity_ins_thick_in",
                  "value" : 0
               },
               {
                  "name" : "roof_framing_factor",
                  "value" : 0.070000000000000007
               },
               {
                  "name" : "roof_framing_thick_in",
                  "value" : 7.25
               },
               {
                  "name" : "roof_osb_thick_in",
                  "value" : 0.75
               },
               {
                  "name" : "roof_rigid_r",
                  "value" : 0
               },
               {
                  "name" : "roofing_material",
                  "value" : "Asphalt Shingles, Medium"
               },
               {
                  "name" : "has_radiant_barrier",
                  "value" : false
               }
            ],
            "step_warnings" : []
         }
      },
      {
         "arguments" : {
            "cavity_depth" : "9.25",
            "cavity_r" : "0",
            "drywall_thick_in" : "0.5",
            "filled_cavity" : "false",
            "framing_factor" : "0.07",
            "install_grade" : "1",
            "osb_thick_in" : "0.75",
            "rigid_r" : "0.0",
            "roofing_material" : "Asphalt Shingles, Medium"
         },
         "measure_dir_name" : "ResidentialConstructionsFinishedRoof",
         "result" : {
            "completed_at" : "20191220T161501Z",
            "measure_class_name" : "ProcessConstructionsFinishedRoof",
            "measure_display_name" : "Set Residential Finished Roof Construction",
            "measure_name" : "process_constructions_finished_roof",
            "measure_taxonomy" : "Envelope.Opaque",
            "measure_type" : "ModelMeasure",
            "measure_uid" : "6349eb9b-6e7e-4ba9-b518-76d2f9f73c79",
            "measure_version_id" : "419ed68e-98f0-4200-99c5-e6277268288d",
            "measure_version_modified" : "20190701T173016Z",
            "measure_xml_checksum" : "1E963D9C",
            "started_at" : "20191220T161501Z",
            "stderr" : "",
            "stdout" : "",
            "step_errors" : [],
            "step_files" : [],
            "step_info" : [
               "Material 'RoofIns' was created.",
               "Material 'Drywall 0.5 in.' was created.",
               "Construction 'RoofFinInsExt' was created with 4 materials (Asphalt Shingles, Medium | RoofSheathing | RoofIns | Drywall 0.5 in.).",
               "Surface 'Surface 143' has been assigned construction 'RoofFinInsExt'.",
               "Surface 'Surface 131' has been assigned construction 'RoofFinInsExt'.",
               "Surface 'Surface 76' has been assigned construction 'RoofFinInsExt'.",
               "Surface 'Surface 100' has been assigned construction 'RoofFinInsExt'.",
               "Surface 'Surface 83' has been assigned construction 'RoofFinInsExt'.",
               "Surface 'Surface 88' has been assigned construction 'RoofFinInsExt'.",
               "Surface 'Surface 107' has been assigned construction 'RoofFinInsExt'.",
               "Surface 'Surface 95' has been assigned construction 'RoofFinInsExt'.",
               "Surface 'Surface 112' has been assigned construction 'RoofFinInsExt'.",
               "Surface 'Surface 119' has been assigned construction 'RoofFinInsExt'.",
               "Surface 'Surface 124' has been assigned construction 'RoofFinInsExt'.",
               "Surface 'Surface 136' has been assigned construction 'RoofFinInsExt'.",
               "Material 'RoofStudAndAirRoof 1' was created.",
               "Construction 'RoofUnfinUninsExt 1' was created with 3 materials (Asphalt Shingles, Medium | RoofSheathing | RoofStudAndAirRoof 1).",
               "Surface 'Surface 150' has been assigned construction 'RoofUnfinUninsExt 1'.",
               "Surface 'Surface 151' has been assigned construction 'RoofUnfinUninsExt 1'.",
               "Removed construction 'RoofUnfinUninsExt' because it was orphaned.",
               "Removed material 'RoofStudAndAirRoof' because it was orphaned."
            ],
            "step_result" : "Success",
            "step_values" : [
               {
                  "name" : "cavity_r",
                  "value" : 0
               },
               {
                  "name" : "install_grade",
                  "value" : "1"
               },
               {
                  "name" : "cavity_depth",
                  "value" : 9.25
               },
               {
                  "name" : "filled_cavity",
                  "value" : false
               },
               {
                  "name" : "framing_factor",
                  "value" : 0.070000000000000007
               },
               {
                  "name" : "drywall_thick_in",
                  "value" : 0.5
               },
               {
                  "name" : "osb_thick_in",
                  "value" : 0.75
               },
               {
                  "name" : "rigid_r",
                  "value" : 0
               },
               {
                  "name" : "roofing_material",
                  "value" : "Asphalt Shingles, Medium"
               }
            ],
            "step_warnings" : []
         }
      },
      {
         "arguments" : {
            "cavity_depth_in" : "3.5",
            "cavity_filled" : "false",
            "cavity_r" : "0",
            "drywall_thick_in" : "0.5",
            "exterior_finish" : "Vinyl, Light",
            "framing_factor" : "0.25",
            "install_grade" : "1",
            "osb_thick_in" : "0.5",
            "rigid_r" : "0.0"
         },
         "measure_dir_name" : "ResidentialConstructionsWallsWoodStud",
         "result" : {
            "completed_at" : "20191220T161502Z",
            "measure_class_name" : "ProcessConstructionsWallsWoodStud",
            "measure_display_name" : "Set Residential Walls - Wood Stud Construction",
            "measure_name" : "process_constructions_walls_wood_stud",
            "measure_taxonomy" : "Envelope.Opaque",
            "measure_type" : "ModelMeasure",
            "measure_uid" : "76193c5c-d1a6-4a57-864a-c8a32e67adcb",
            "measure_version_id" : "8c4c2f94-d284-4745-b94d-471663fbbb82",
            "measure_version_modified" : "20190701T173017Z",
            "measure_xml_checksum" : "1E963D9C",
            "started_at" : "20191220T161501Z",
            "stderr" : "",
            "stdout" : "",
            "step_errors" : [],
            "step_files" : [],
            "step_info" : [
               "Material 'Vinyl, Light' was created.",
               "Material 'WallSheathing' was created.",
               "Material 'WallStudAndCavity' was created.",
               "Construction 'WallExtInsFin' was created with 4 materials (Vinyl, Light | WallSheathing | WallStudAndCavity | Drywall 0.5 in.).",
               "Surface 'Surface 14' has been assigned construction 'WallExtInsFin'.",
               "Surface 'Surface 5' has been assigned construction 'WallExtInsFin'.",
               "Surface 'Surface 2' has been assigned construction 'WallExtInsFin'.",
               "Surface 'Surface 20' has been assigned construction 'WallExtInsFin'.",
               "Surface 'Surface 9' has been assigned construction 'WallExtInsFin'.",
               "Surface 'Surface 8' has been assigned construction 'WallExtInsFin'.",
               "Surface 'Surface 26' has been assigned construction 'WallExtInsFin'.",
               "Surface 'Surface 50' has been assigned construction 'WallExtInsFin'.",
               "Surface 'Surface 32' has been assigned construction 'WallExtInsFin'.",
               "Surface 'Surface 140' has been assigned construction 'WallExtInsFin'.",
               "Surface 'Surface 144' has been assigned construction 'WallExtInsFin'.",
               "Surface 'Surface 38' has been assigned construction 'WallExtInsFin'.",
               "Surface 'Surface 44' has been assigned construction 'WallExtInsFin'.",
               "Surface 'Surface 56' has been assigned construction 'WallExtInsFin'.",
               "Surface 'Surface 128' has been assigned construction 'WallExtInsFin'.",
               "Surface 'Surface 65' has been assigned construction 'WallExtInsFin'.",
               "Surface 'Surface 62' has been assigned construction 'WallExtInsFin'.",
               "Surface 'Surface 72' has been assigned construction 'WallExtInsFin'.",
               "Surface 'Surface 68' has been assigned construction 'WallExtInsFin'.",
               "Surface 'Surface 74' has been assigned construction 'WallExtInsFin'.",
               "Surface 'Surface 78' has been assigned construction 'WallExtInsFin'.",
               "Surface 'Surface 98' has been assigned construction 'WallExtInsFin'.",
               "Surface 'Surface 80' has been assigned construction 'WallExtInsFin'.",
               "Surface 'Surface 82' has been assigned construction 'WallExtInsFin'.",
               "Surface 'Surface 86' has been assigned construction 'WallExtInsFin'.",
               "Surface 'Surface 104' has been assigned construction 'WallExtInsFin'.",
               "Surface 'Surface 92' has been assigned construction 'WallExtInsFin'.",
               "Surface 'Surface 110' has been assigned construction 'WallExtInsFin'.",
               "Surface 'Surface 116' has been assigned construction 'WallExtInsFin'.",
               "Surface 'Surface 122' has been assigned construction 'WallExtInsFin'.",
               "Surface 'Surface 134' has been assigned construction 'WallExtInsFin'.",
               "Surface 'Surface 137' has been assigned construction 'WallExtInsFin'.",
               "Material 'WallStudAndCavity 1' was created.",
               "Construction 'WallExtUninsUnfin' was created with 3 materials (Vinyl, Light | WallSheathing | WallStudAndCavity 1).",
               "Surface 'Surface 146' has been assigned construction 'WallExtUninsUnfin'.",
               "Surface 'Surface 148' has been assigned construction 'WallExtUninsUnfin'.",
               "Surface 'Surface 152' has been assigned construction 'WallExtUninsUnfin'.",
               "Surface 'Surface 155' has been assigned construction 'WallExtUninsUnfin'.",
               "Material 'WallStudAndCavity 2' was created.",
               "Construction 'WallIntFinUninsFin' was created with 3 materials (Vinyl, Light | WallStudAndCavity 2 | Drywall 0.5 in.).",
               "Surface 'Surface 17' has been assigned construction 'WallIntFinUninsFin'.",
               "Construction 'WallIntFinUninsFin Reversed' was created with 3 materials (Drywall 0.5 in. | WallStudAndCavity 2 | Vinyl, Light).",
               "Surface 'Surface 30' has been assigned construction 'WallIntFinUninsFin Reversed'.",
               "Surface 'Surface 18' has been assigned construction 'WallIntFinUninsFin'.",
               "Surface 'Surface 4' has been assigned construction 'WallIntFinUninsFin Reversed'.",
               "Surface 'Surface 15' has been assigned construction 'WallIntFinUninsFin'.",
               "Surface 'Surface 3' has been assigned construction 'WallIntFinUninsFin'.",
               "Surface 'Surface 4' has been assigned construction 'WallIntFinUninsFin'.",
               "Surface 'Surface 18' has been assigned construction 'WallIntFinUninsFin Reversed'.",
               "Surface 'Surface 19' has been assigned construction 'WallIntFinUninsFin'.",
               "Surface 'Surface 22' has been assigned construction 'WallIntFinUninsFin'.",
               "Surface 'Surface 10' has been assigned construction 'WallIntFinUninsFin Reversed'.",
               "Surface 'Surface 24' has been assigned construction 'WallIntFinUninsFin'.",
               "Surface 'Surface 34' has been assigned construction 'WallIntFinUninsFin Reversed'.",
               "Surface 'Surface 11' has been assigned construction 'WallIntFinUninsFin'.",
               "Surface 'Surface 10' has been assigned construction 'WallIntFinUninsFin'.",
               "Surface 'Surface 22' has been assigned construction 'WallIntFinUninsFin Reversed'.",
               "Surface 'Surface 29' has been assigned construction 'WallIntFinUninsFin'.",
               "Surface 'Surface 42' has been assigned construction 'WallIntFinUninsFin Reversed'.",
               "Surface 'Surface 27' has been assigned construction 'WallIntFinUninsFin'.",
               "Surface 'Surface 30' has been assigned construction 'WallIntFinUninsFin'.",
               "Surface 'Surface 17' has been assigned construction 'WallIntFinUninsFin Reversed'.",
               "Surface 'Surface 53' has been assigned construction 'WallIntFinUninsFin'.",
               "Surface 'Surface 66' has been assigned construction 'WallIntFinUninsFin Reversed'.",
               "Surface 'Surface 54' has been assigned construction 'WallIntFinUninsFin'.",
               "Surface 'Surface 41' has been assigned construction 'WallIntFinUninsFin Reversed'.",
               "Surface 'Surface 51' has been assigned construction 'WallIntFinUninsFin'.",
               "Surface 'Surface 31' has been assigned construction 'WallIntFinUninsFin'.",
               "Surface 'Surface 36' has been assigned construction 'WallIntFinUninsFin'.",
               "Surface 'Surface 46' has been assigned construction 'WallIntFinUninsFin Reversed'.",
               "Surface 'Surface 34' has been assigned construction 'WallIntFinUninsFin'.",
               "Surface 'Surface 24' has been assigned construction 'WallIntFinUninsFin Reversed'.",
               "Surface 'Surface 139' has been assigned construction 'WallIntFinUninsFin'.",
               "Surface 'Surface 142' has been assigned construction 'WallIntFinUninsFin'.",
               "Surface 'Surface 132' has been assigned construction 'WallIntFinUninsFin Reversed'.",
               "Surface 'Surface 41' has been assigned construction 'WallIntFinUninsFin'.",
               "Surface 'Surface 54' has been assigned construction 'WallIntFinUninsFin Reversed'.",
               "Surface 'Surface 42' has been assigned construction 'WallIntFinUninsFin'.",
               "Surface 'Surface 29' has been assigned construction 'WallIntFinUninsFin Reversed'.",
               "Surface 'Surface 39' has been assigned construction 'WallIntFinUninsFin'.",
               "Surface 'Surface 46' has been assigned construction 'WallIntFinUninsFin'.",
               "Surface 'Surface 36' has been assigned construction 'WallIntFinUninsFin Reversed'.",
               "Surface 'Surface 48' has been assigned construction 'WallIntFinUninsFin'.",
               "Surface 'Surface 58' has been assigned construction 'WallIntFinUninsFin Reversed'.",
               "Surface 'Surface 43' has been assigned construction 'WallIntFinUninsFin'.",
               "Surface 'Surface 58' has been assigned construction 'WallIntFinUninsFin'.",
               "Surface 'Surface 48' has been assigned construction 'WallIntFinUninsFin Reversed'.",
               "Surface 'Surface 55' has been assigned construction 'WallIntFinUninsFin'.",
               "Surface 'Surface 60' has been assigned construction 'WallIntFinUninsFin'.",
               "Surface 'Surface 70' has been assigned construction 'WallIntFinUninsFin Reversed'.",
               "Surface 'Surface 127' has been assigned construction 'WallIntFinUninsFin'.",
[...]
               "unit 13 Initial Results (w/o ducts):\nHeat Load = 22916 Btu/hr\nCool Load Sens = 11417 Btu/hr\nCool Load Lat = 2155 Btu/hr\nDehumid Load Sens = 3383 Btu/hr\nDehumid Load Lat = 4392 Btu/hr\nHeat Airflow = 0 cfm\nCool Airflow = 587 cfm\n",
               "unit 13 Final Results:\nHeat Load = 22916 Btu/hr\nHeat Load Ducts = 0 Btu/hr\nCool Load Lat = 2155 Btu/hr\nCool Load Sens = 11417 Btu/hr\nCool Load Ducts Lat = 0 Btu/hr\nCool Load Ducts Sens = 0 Btu/hr\nDehumid Load Sens = 3383 Btu/hr\nDehumid Load Ducts Lat = 4392 Btu/hr\nCool Capacity = 15722 Btu/hr\nCool Capacity Sens = 11641 Btu/hr\nHeat Capacity = 0 Btu/hr\nHeat Capacity Supp = 0 Btu/hr\nCool Airflow = 654 cfm\nHeat Airflow = 0 cfm\nDehumid WaterRemoval = 0 L/day\n",
               "Found central air conditioner in living zone|unit 14.",
               "Found central boiler in living zone|unit 14.",
               "unit 14 Zone Loads for living zone|unit 14:\nHeat Windows = 2482 Btu/hr\nHeat Skylights = 0 Btu/hr\nHeat Doors = 0 Btu/hr\nHeat Walls = 4164 Btu/hr\nHeat Roofs = 7144 Btu/hr\nHeat Floors = 0 Btu/hr\nHeat Infil = 9126 Btu/hr\nCool Windows = 1807 Btu/hr\nCool Skylights = 0 Btu/hr\nCool Doors = 0 Btu/hr\nCool Walls = 1169 Btu/hr\nCool Roofs = 5016 Btu/hr\nCool Floors = 0 Btu/hr\nCool Infil Sens = 968 Btu/hr\nCool Infil Lat = 1208 Btu/hr\nCool IntGains Sens = 2253 Btu/hr\nCool IntGains Lat = 947 Btu/hr\nDehumid Windows = 136 Btu/hr\nDehumid Skylights = 0 Btu/hr\nDehumid Doors = 0 Btu/hr\nDehumid Walls = 229 Btu/hr\nDehumid Roofs = 393 Btu/hr\nDehumid Floors = 0 Btu/hr\nDehumid Infil Sens = 373 Btu/hr\nDehumid Infil Lat = 3445 Btu/hr\nDehumid IntGains Sens = 2253 Btu/hr\nDehumid IntGains Lat = 947 Btu/hr\n",
               "unit 14 Initial Results (w/o ducts):\nHeat Load = 22916 Btu/hr\nCool Load Sens = 11212 Btu/hr\nCool Load Lat = 2155 Btu/hr\nDehumid Load Sens = 3383 Btu/hr\nDehumid Load Lat = 4392 Btu/hr\nHeat Airflow = 0 cfm\nCool Airflow = 570 cfm\n",
               "unit 14 Final Results:\nHeat Load = 22916 Btu/hr\nHeat Load Ducts = 0 Btu/hr\nCool Load Lat = 2155 Btu/hr\nCool Load Sens = 11212 Btu/hr\nCool Load Ducts Lat = 0 Btu/hr\nCool Load Ducts Sens = 0 Btu/hr\nDehumid Load Sens = 3383 Btu/hr\nDehumid Load Ducts Lat = 4392 Btu/hr\nCool Capacity = 15484 Btu/hr\nCool Capacity Sens = 11464 Btu/hr\nHeat Capacity = 0 Btu/hr\nHeat Capacity Supp = 0 Btu/hr\nCool Airflow = 644 cfm\nHeat Airflow = 0 cfm\nDehumid WaterRemoval = 0 L/day\n",
               "Found central air conditioner in living zone|unit 15.",
               "Found central boiler in living zone|unit 15.",
               "unit 15 Zone Loads for living zone|unit 15:\nHeat Windows = 886 Btu/hr\nHeat Skylights = 0 Btu/hr\nHeat Doors = 0 Btu/hr\nHeat Walls = 1487 Btu/hr\nHeat Roofs = 7144 Btu/hr\nHeat Floors = 0 Btu/hr\nHeat Infil = 3259 Btu/hr\nCool Windows = 1622 Btu/hr\nCool Skylights = 0 Btu/hr\nCool Doors = 0 Btu/hr\nCool Walls = 570 Btu/hr\nCool Roofs = 5016 Btu/hr\nCool Floors = 0 Btu/hr\nCool Infil Sens = 346 Btu/hr\nCool Infil Lat = 431 Btu/hr\nCool IntGains Sens = 2253 Btu/hr\nCool IntGains Lat = 947 Btu/hr\nDehumid Windows = 49 Btu/hr\nDehumid Skylights = 0 Btu/hr\nDehumid Doors = 0 Btu/hr\nDehumid Walls = 82 Btu/hr\nDehumid Roofs = 393 Btu/hr\nDehumid Floors = 0 Btu/hr\nDehumid Infil Sens = 133 Btu/hr\nDehumid Infil Lat = 1230 Btu/hr\nDehumid IntGains Sens = 2253 Btu/hr\nDehumid IntGains Lat = 947 Btu/hr\n",
               "unit 15 Initial Results (w/o ducts):\nHeat Load = 12777 Btu/hr\nCool Load Sens = 9806 Btu/hr\nCool Load Lat = 1378 Btu/hr\nDehumid Load Sens = 2909 Btu/hr\nDehumid Load Lat = 2177 Btu/hr\nHeat Airflow = 0 cfm\nCool Airflow = 525 cfm\n",
               "unit 15 Final Results:\nHeat Load = 12777 Btu/hr\nHeat Load Ducts = 0 Btu/hr\nCool Load Lat = 1378 Btu/hr\nCool Load Sens = 9806 Btu/hr\nCool Load Ducts Lat = 0 Btu/hr\nCool Load Ducts Sens = 0 Btu/hr\nDehumid Load Sens = 2909 Btu/hr\nDehumid Load Ducts Lat = 2177 Btu/hr\nCool Capacity = 12956 Btu/hr\nCool Capacity Sens = 9593 Btu/hr\nHeat Capacity = 0 Btu/hr\nHeat Capacity Supp = 0 Btu/hr\nCool Airflow = 539 cfm\nHeat Airflow = 0 cfm\nDehumid WaterRemoval = 0 L/day\n",
               "Found central air conditioner in living zone|unit 16.",
               "Found central boiler in living zone|unit 16.",
               "unit 16 Zone Loads for living zone|unit 16:\nHeat Windows = 886 Btu/hr\nHeat Skylights = 0 Btu/hr\nHeat Doors = 0 Btu/hr\nHeat Walls = 1487 Btu/hr\nHeat Roofs = 7144 Btu/hr\nHeat Floors = 0 Btu/hr\nHeat Infil = 3259 Btu/hr\nCool Windows = 1640 Btu/hr\nCool Skylights = 0 Btu/hr\nCool Doors = 0 Btu/hr\nCool Walls = 570 Btu/hr\nCool Roofs = 5016 Btu/hr\nCool Floors = 0 Btu/hr\nCool Infil Sens = 346 Btu/hr\nCool Infil Lat = 431 Btu/hr\nCool IntGains Sens = 2253 Btu/hr\nCool IntGains Lat = 947 Btu/hr\nDehumid Windows = 49 Btu/hr\nDehumid Skylights = 0 Btu/hr\nDehumid Doors = 0 Btu/hr\nDehumid Walls = 82 Btu/hr\nDehumid Roofs = 393 Btu/hr\nDehumid Floors = 0 Btu/hr\nDehumid Infil Sens = 133 Btu/hr\nDehumid Infil Lat = 1230 Btu/hr\nDehumid IntGains Sens = 2253 Btu/hr\nDehumid IntGains Lat = 947 Btu/hr\n",
               "unit 16 Initial Results (w/o ducts):\nHeat Load = 12777 Btu/hr\nCool Load Sens = 9824 Btu/hr\nCool Load Lat = 1378 Btu/hr\nDehumid Load Sens = 2909 Btu/hr\nDehumid Load Lat = 2177 Btu/hr\nHeat Airflow = 0 cfm\nCool Airflow = 526 cfm\n",
               "unit 16 Final Results:\nHeat Load = 12777 Btu/hr\nHeat Load Ducts = 0 Btu/hr\nCool Load Lat = 1378 Btu/hr\nCool Load Sens = 9824 Btu/hr\nCool Load Ducts Lat = 0 Btu/hr\nCool Load Ducts Sens = 0 Btu/hr\nDehumid Load Sens = 2909 Btu/hr\nDehumid Load Ducts Lat = 2177 Btu/hr\nCool Capacity = 12977 Btu/hr\nCool Capacity Sens = 9608 Btu/hr\nHeat Capacity = 0 Btu/hr\nHeat Capacity Supp = 0 Btu/hr\nCool Airflow = 540 cfm\nHeat Airflow = 0 cfm\nDehumid WaterRemoval = 0 L/day\n",
               "Found central air conditioner in living zone|unit 17.",
               "Found central boiler in living zone|unit 17.",
               "unit 17 Zone Loads for living zone|unit 17:\nHeat Windows = 886 Btu/hr\nHeat Skylights = 0 Btu/hr\nHeat Doors = 0 Btu/hr\nHeat Walls = 1487 Btu/hr\nHeat Roofs = 7144 Btu/hr\nHeat Floors = 0 Btu/hr\nHeat Infil = 3259 Btu/hr\nCool Windows = 1622 Btu/hr\nCool Skylights = 0 Btu/hr\nCool Doors = 0 Btu/hr\nCool Walls = 570 Btu/hr\nCool Roofs = 5016 Btu/hr\nCool Floors = 0 Btu/hr\nCool Infil Sens = 346 Btu/hr\nCool Infil Lat = 431 Btu/hr\nCool IntGains Sens = 2253 Btu/hr\nCool IntGains Lat = 947 Btu/hr\nDehumid Windows = 49 Btu/hr\nDehumid Skylights = 0 Btu/hr\nDehumid Doors = 0 Btu/hr\nDehumid Walls = 82 Btu/hr\nDehumid Roofs = 393 Btu/hr\nDehumid Floors = 0 Btu/hr\nDehumid Infil Sens = 133 Btu/hr\nDehumid Infil Lat = 1230 Btu/hr\nDehumid IntGains Sens = 2253 Btu/hr\nDehumid IntGains Lat = 947 Btu/hr\n",
               "unit 17 Initial Results (w/o ducts):\nHeat Load = 12777 Btu/hr\nCool Load Sens = 9806 Btu/hr\nCool Load Lat = 1378 Btu/hr\nDehumid Load Sens = 2909 Btu/hr\nDehumid Load Lat = 2177 Btu/hr\nHeat Airflow = 0 cfm\nCool Airflow = 525 cfm\n",
               "unit 17 Final Results:\nHeat Load = 12777 Btu/hr\nHeat Load Ducts = 0 Btu/hr\nCool Load Lat = 1378 Btu/hr\nCool Load Sens = 9806 Btu/hr\nCool Load Ducts Lat = 0 Btu/hr\nCool Load Ducts Sens = 0 Btu/hr\nDehumid Load Sens = 2909 Btu/hr\nDehumid Load Ducts Lat = 2177 Btu/hr\nCool Capacity = 12956 Btu/hr\nCool Capacity Sens = 9593 Btu/hr\nHeat Capacity = 0 Btu/hr\nHeat Capacity Supp = 0 Btu/hr\nCool Airflow = 539 cfm\nHeat Airflow = 0 cfm\nDehumid WaterRemoval = 0 L/day\n",
               "Found central air conditioner in living zone|unit 18.",
               "Found central boiler in living zone|unit 18.",
               "unit 18 Zone Loads for living zone|unit 18:\nHeat Windows = 886 Btu/hr\nHeat Skylights = 0 Btu/hr\nHeat Doors = 0 Btu/hr\nHeat Walls = 1487 Btu/hr\nHeat Roofs = 7144 Btu/hr\nHeat Floors = 0 Btu/hr\nHeat Infil = 3259 Btu/hr\nCool Windows = 1640 Btu/hr\nCool Skylights = 0 Btu/hr\nCool Doors = 0 Btu/hr\nCool Walls = 570 Btu/hr\nCool Roofs = 5016 Btu/hr\nCool Floors = 0 Btu/hr\nCool Infil Sens = 346 Btu/hr\nCool Infil Lat = 431 Btu/hr\nCool IntGains Sens = 2253 Btu/hr\nCool IntGains Lat = 947 Btu/hr\nDehumid Windows = 49 Btu/hr\nDehumid Skylights = 0 Btu/hr\nDehumid Doors = 0 Btu/hr\nDehumid Walls = 82 Btu/hr\nDehumid Roofs = 393 Btu/hr\nDehumid Floors = 0 Btu/hr\nDehumid Infil Sens = 133 Btu/hr\nDehumid Infil Lat = 1230 Btu/hr\nDehumid IntGains Sens = 2253 Btu/hr\nDehumid IntGains Lat = 947 Btu/hr\n",
               "unit 18 Initial Results (w/o ducts):\nHeat Load = 12777 Btu/hr\nCool Load Sens = 9824 Btu/hr\nCool Load Lat = 1378 Btu/hr\nDehumid Load Sens = 2909 Btu/hr\nDehumid Load Lat = 2177 Btu/hr\nHeat Airflow = 0 cfm\nCool Airflow = 526 cfm\n",
               "unit 18 Final Results:\nHeat Load = 12777 Btu/hr\nHeat Load Ducts = 0 Btu/hr\nCool Load Lat = 1378 Btu/hr\nCool Load Sens = 9824 Btu/hr\nCool Load Ducts Lat = 0 Btu/hr\nCool Load Ducts Sens = 0 Btu/hr\nDehumid Load Sens = 2909 Btu/hr\nDehumid Load Ducts Lat = 2177 Btu/hr\nCool Capacity = 12977 Btu/hr\nCool Capacity Sens = 9608 Btu/hr\nHeat Capacity = 0 Btu/hr\nHeat Capacity Supp = 0 Btu/hr\nCool Airflow = 540 cfm\nHeat Airflow = 0 cfm\nDehumid WaterRemoval = 0 L/day\n",
               "Found central air conditioner in living zone|unit 19.",
               "Found central boiler in living zone|unit 19.",
               "unit 19 Zone Loads for living zone|unit 19:\nHeat Windows = 886 Btu/hr\nHeat Skylights = 0 Btu/hr\nHeat Doors = 0 Btu/hr\nHeat Walls = 1487 Btu/hr\nHeat Roofs = 7144 Btu/hr\nHeat Floors = 0 Btu/hr\nHeat Infil = 3259 Btu/hr\nCool Windows = 1622 Btu/hr\nCool Skylights = 0 Btu/hr\nCool Doors = 0 Btu/hr\nCool Walls = 570 Btu/hr\nCool Roofs = 5016 Btu/hr\nCool Floors = 0 Btu/hr\nCool Infil Sens = 346 Btu/hr\nCool Infil Lat = 431 Btu/hr\nCool IntGains Sens = 2253 Btu/hr\nCool IntGains Lat = 947 Btu/hr\nDehumid Windows = 49 Btu/hr\nDehumid Skylights = 0 Btu/hr\nDehumid Doors = 0 Btu/hr\nDehumid Walls = 82 Btu/hr\nDehumid Roofs = 393 Btu/hr\nDehumid Floors = 0 Btu/hr\nDehumid Infil Sens = 133 Btu/hr\nDehumid Infil Lat = 1230 Btu/hr\nDehumid IntGains Sens = 2253 Btu/hr\nDehumid IntGains Lat = 947 Btu/hr\n",
               "unit 19 Initial Results (w/o ducts):\nHeat Load = 12777 Btu/hr\nCool Load Sens = 9806 Btu/hr\nCool Load Lat = 1378 Btu/hr\nDehumid Load Sens = 2909 Btu/hr\nDehumid Load Lat = 2177 Btu/hr\nHeat Airflow = 0 cfm\nCool Airflow = 525 cfm\n",
               "unit 19 Final Results:\nHeat Load = 12777 Btu/hr\nHeat Load Ducts = 0 Btu/hr\nCool Load Lat = 1378 Btu/hr\nCool Load Sens = 9806 Btu/hr\nCool Load Ducts Lat = 0 Btu/hr\nCool Load Ducts Sens = 0 Btu/hr\nDehumid Load Sens = 2909 Btu/hr\nDehumid Load Ducts Lat = 2177 Btu/hr\nCool Capacity = 12956 Btu/hr\nCool Capacity Sens = 9593 Btu/hr\nHeat Capacity = 0 Btu/hr\nHeat Capacity Supp = 0 Btu/hr\nCool Airflow = 539 cfm\nHeat Airflow = 0 cfm\nDehumid WaterRemoval = 0 L/day\n",
               "Found central air conditioner in living zone|unit 20.",
               "Found central boiler in living zone|unit 20.",
               "unit 20 Zone Loads for living zone|unit 20:\nHeat Windows = 886 Btu/hr\nHeat Skylights = 0 Btu/hr\nHeat Doors = 0 Btu/hr\nHeat Walls = 1487 Btu/hr\nHeat Roofs = 7144 Btu/hr\nHeat Floors = 0 Btu/hr\nHeat Infil = 3259 Btu/hr\nCool Windows = 1640 Btu/hr\nCool Skylights = 0 Btu/hr\nCool Doors = 0 Btu/hr\nCool Walls = 570 Btu/hr\nCool Roofs = 5016 Btu/hr\nCool Floors = 0 Btu/hr\nCool Infil Sens = 346 Btu/hr\nCool Infil Lat = 431 Btu/hr\nCool IntGains Sens = 2253 Btu/hr\nCool IntGains Lat = 947 Btu/hr\nDehumid Windows = 49 Btu/hr\nDehumid Skylights = 0 Btu/hr\nDehumid Doors = 0 Btu/hr\nDehumid Walls = 82 Btu/hr\nDehumid Roofs = 393 Btu/hr\nDehumid Floors = 0 Btu/hr\nDehumid Infil Sens = 133 Btu/hr\nDehumid Infil Lat = 1230 Btu/hr\nDehumid IntGains Sens = 2253 Btu/hr\nDehumid IntGains Lat = 947 Btu/hr\n",
               "unit 20 Initial Results (w/o ducts):\nHeat Load = 12777 Btu/hr\nCool Load Sens = 9824 Btu/hr\nCool Load Lat = 1378 Btu/hr\nDehumid Load Sens = 2909 Btu/hr\nDehumid Load Lat = 2177 Btu/hr\nHeat Airflow = 0 cfm\nCool Airflow = 526 cfm\n",
               "unit 20 Final Results:\nHeat Load = 12777 Btu/hr\nHeat Load Ducts = 0 Btu/hr\nCool Load Lat = 1378 Btu/hr\nCool Load Sens = 9824 Btu/hr\nCool Load Ducts Lat = 0 Btu/hr\nCool Load Ducts Sens = 0 Btu/hr\nDehumid Load Sens = 2909 Btu/hr\nDehumid Load Ducts Lat = 2177 Btu/hr\nCool Capacity = 12977 Btu/hr\nCool Capacity Sens = 9608 Btu/hr\nHeat Capacity = 0 Btu/hr\nHeat Capacity Supp = 0 Btu/hr\nCool Airflow = 540 cfm\nHeat Airflow = 0 cfm\nDehumid WaterRemoval = 0 L/day\n",
               "Found central air conditioner in living zone|unit 21.",
               "Found central boiler in living zone|unit 21.",
               "unit 21 Zone Loads for living zone|unit 21:\nHeat Windows = 886 Btu/hr\nHeat Skylights = 0 Btu/hr\nHeat Doors = 0 Btu/hr\nHeat Walls = 1487 Btu/hr\nHeat Roofs = 7144 Btu/hr\nHeat Floors = 0 Btu/hr\nHeat Infil = 3259 Btu/hr\nCool Windows = 1622 Btu/hr\nCool Skylights = 0 Btu/hr\nCool Doors = 0 Btu/hr\nCool Walls = 570 Btu/hr\nCool Roofs = 5016 Btu/hr\nCool Floors = 0 Btu/hr\nCool Infil Sens = 346 Btu/hr\nCool Infil Lat = 431 Btu/hr\nCool IntGains Sens = 2253 Btu/hr\nCool IntGains Lat = 947 Btu/hr\nDehumid Windows = 49 Btu/hr\nDehumid Skylights = 0 Btu/hr\nDehumid Doors = 0 Btu/hr\nDehumid Walls = 82 Btu/hr\nDehumid Roofs = 393 Btu/hr\nDehumid Floors = 0 Btu/hr\nDehumid Infil Sens = 133 Btu/hr\nDehumid Infil Lat = 1230 Btu/hr\nDehumid IntGains Sens = 2253 Btu/hr\nDehumid IntGains Lat = 947 Btu/hr\n",
               "unit 21 Initial Results (w/o ducts):\nHeat Load = 12777 Btu/hr\nCool Load Sens = 9806 Btu/hr\nCool Load Lat = 1378 Btu/hr\nDehumid Load Sens = 2909 Btu/hr\nDehumid Load Lat = 2177 Btu/hr\nHeat Airflow = 0 cfm\nCool Airflow = 525 cfm\n",
               "unit 21 Final Results:\nHeat Load = 12777 Btu/hr\nHeat Load Ducts = 0 Btu/hr\nCool Load Lat = 1378 Btu/hr\nCool Load Sens = 9806 Btu/hr\nCool Load Ducts Lat = 0 Btu/hr\nCool Load Ducts Sens = 0 Btu/hr\nDehumid Load Sens = 2909 Btu/hr\nDehumid Load Ducts Lat = 2177 Btu/hr\nCool Capacity = 12956 Btu/hr\nCool Capacity Sens = 9593 Btu/hr\nHeat Capacity = 0 Btu/hr\nHeat Capacity Supp = 0 Btu/hr\nCool Airflow = 539 cfm\nHeat Airflow = 0 cfm\nDehumid WaterRemoval = 0 L/day\n",
               "Found central air conditioner in living zone|unit 22.",
               "Found central boiler in living zone|unit 22.",
               "unit 22 Zone Loads for living zone|unit 22:\nHeat Windows = 886 Btu/hr\nHeat Skylights = 0 Btu/hr\nHeat Doors = 0 Btu/hr\nHeat Walls = 1487 Btu/hr\nHeat Roofs = 7144 Btu/hr\nHeat Floors = 0 Btu/hr\nHeat Infil = 3259 Btu/hr\nCool Windows = 1640 Btu/hr\nCool Skylights = 0 Btu/hr\nCool Doors = 0 Btu/hr\nCool Walls = 570 Btu/hr\nCool Roofs = 5016 Btu/hr\nCool Floors = 0 Btu/hr\nCool Infil Sens = 346 Btu/hr\nCool Infil Lat = 431 Btu/hr\nCool IntGains Sens = 2253 Btu/hr\nCool IntGains Lat = 947 Btu/hr\nDehumid Windows = 49 Btu/hr\nDehumid Skylights = 0 Btu/hr\nDehumid Doors = 0 Btu/hr\nDehumid Walls = 82 Btu/hr\nDehumid Roofs = 393 Btu/hr\nDehumid Floors = 0 Btu/hr\nDehumid Infil Sens = 133 Btu/hr\nDehumid Infil Lat = 1230 Btu/hr\nDehumid IntGains Sens = 2253 Btu/hr\nDehumid IntGains Lat = 947 Btu/hr\n",
               "unit 22 Initial Results (w/o ducts):\nHeat Load = 12777 Btu/hr\nCool Load Sens = 9824 Btu/hr\nCool Load Lat = 1378 Btu/hr\nDehumid Load Sens = 2909 Btu/hr\nDehumid Load Lat = 2177 Btu/hr\nHeat Airflow = 0 cfm\nCool Airflow = 526 cfm\n",
               "unit 22 Final Results:\nHeat Load = 12777 Btu/hr\nHeat Load Ducts = 0 Btu/hr\nCool Load Lat = 1378 Btu/hr\nCool Load Sens = 9824 Btu/hr\nCool Load Ducts Lat = 0 Btu/hr\nCool Load Ducts Sens = 0 Btu/hr\nDehumid Load Sens = 2909 Btu/hr\nDehumid Load Ducts Lat = 2177 Btu/hr\nCool Capacity = 12977 Btu/hr\nCool Capacity Sens = 9608 Btu/hr\nHeat Capacity = 0 Btu/hr\nHeat Capacity Supp = 0 Btu/hr\nCool Airflow = 540 cfm\nHeat Airflow = 0 cfm\nDehumid WaterRemoval = 0 L/day\n",
               "Found central air conditioner in living zone|unit 23.",
               "Found central boiler in living zone|unit 23.",
               "unit 23 Zone Loads for living zone|unit 23:\nHeat Windows = 2482 Btu/hr\nHeat Skylights = 0 Btu/hr\nHeat Doors = 0 Btu/hr\nHeat Walls = 4164 Btu/hr\nHeat Roofs = 7144 Btu/hr\nHeat Floors = 0 Btu/hr\nHeat Infil = 9126 Btu/hr\nCool Windows = 2098 Btu/hr\nCool Skylights = 0 Btu/hr\nCool Doors = 0 Btu/hr\nCool Walls = 1597 Btu/hr\nCool Roofs = 5016 Btu/hr\nCool Floors = 0 Btu/hr\nCool Infil Sens = 968 Btu/hr\nCool Infil Lat = 1208 Btu/hr\nCool IntGains Sens = 2253 Btu/hr\nCool IntGains Lat = 947 Btu/hr\nDehumid Windows = 136 Btu/hr\nDehumid Skylights = 0 Btu/hr\nDehumid Doors = 0 Btu/hr\nDehumid Walls = 229 Btu/hr\nDehumid Roofs = 393 Btu/hr\nDehumid Floors = 0 Btu/hr\nDehumid Infil Sens = 373 Btu/hr\nDehumid Infil Lat = 3445 Btu/hr\nDehumid IntGains Sens = 2253 Btu/hr\nDehumid IntGains Lat = 947 Btu/hr\n",
               "unit 23 Initial Results (w/o ducts):\nHeat Load = 22916 Btu/hr\nCool Load Sens = 11931 Btu/hr\nCool Load Lat = 2155 Btu/hr\nDehumid Load Sens = 3383 Btu/hr\nDehumid Load Lat = 4392 Btu/hr\nHeat Airflow = 0 cfm\nCool Airflow = 630 cfm\n",
               "unit 23 Final Results:\nHeat Load = 22916 Btu/hr\nHeat Load Ducts = 0 Btu/hr\nCool Load Lat = 2155 Btu/hr\nCool Load Sens = 11931 Btu/hr\nCool Load Ducts Lat = 0 Btu/hr\nCool Load Ducts Sens = 0 Btu/hr\nDehumid Load Sens = 3383 Btu/hr\nDehumid Load Ducts Lat = 4392 Btu/hr\nCool Capacity = 16317 Btu/hr\nCool Capacity Sens = 12081 Btu/hr\nHeat Capacity = 0 Btu/hr\nHeat Capacity Supp = 0 Btu/hr\nCool Airflow = 679 cfm\nHeat Airflow = 0 cfm\nDehumid WaterRemoval = 0 L/day\n",
               "Found central air conditioner in living zone|unit 24.",
               "Found central boiler in living zone|unit 24.",
               "unit 24 Zone Loads for living zone|unit 24:\nHeat Windows = 2482 Btu/hr\nHeat Skylights = 0 Btu/hr\nHeat Doors = 0 Btu/hr\nHeat Walls = 4164 Btu/hr\nHeat Roofs = 7144 Btu/hr\nHeat Floors = 0 Btu/hr\nHeat Infil = 9126 Btu/hr\nCool Windows = 2085 Btu/hr\nCool Skylights = 0 Btu/hr\nCool Doors = 0 Btu/hr\nCool Walls = 1597 Btu/hr\nCool Roofs = 5016 Btu/hr\nCool Floors = 0 Btu/hr\nCool Infil Sens = 968 Btu/hr\nCool Infil Lat = 1208 Btu/hr\nCool IntGains Sens = 2253 Btu/hr\nCool IntGains Lat = 947 Btu/hr\nDehumid Windows = 136 Btu/hr\nDehumid Skylights = 0 Btu/hr\nDehumid Doors = 0 Btu/hr\nDehumid Walls = 229 Btu/hr\nDehumid Roofs = 393 Btu/hr\nDehumid Floors = 0 Btu/hr\nDehumid Infil Sens = 373 Btu/hr\nDehumid Infil Lat = 3445 Btu/hr\nDehumid IntGains Sens = 2253 Btu/hr\nDehumid IntGains Lat = 947 Btu/hr\n",
               "unit 24 Initial Results (w/o ducts):\nHeat Load = 22916 Btu/hr\nCool Load Sens = 11918 Btu/hr\nCool Load Lat = 2155 Btu/hr\nDehumid Load Sens = 3383 Btu/hr\nDehumid Load Lat = 4392 Btu/hr\nHeat Airflow = 0 cfm\nCool Airflow = 628 cfm\n",
               "unit 24 Final Results:\nHeat Load = 22916 Btu/hr\nHeat Load Ducts = 0 Btu/hr\nCool Load Lat = 2155 Btu/hr\nCool Load Sens = 11918 Btu/hr\nCool Load Ducts Lat = 0 Btu/hr\nCool Load Ducts Sens = 0 Btu/hr\nDehumid Load Sens = 3383 Btu/hr\nDehumid Load Ducts Lat = 4392 Btu/hr\nCool Capacity = 16302 Btu/hr\nCool Capacity Sens = 12070 Btu/hr\nHeat Capacity = 0 Btu/hr\nHeat Capacity Supp = 0 Btu/hr\nCool Airflow = 678 cfm\nHeat Airflow = 0 cfm\nDehumid WaterRemoval = 0 L/day\n"
            ],
            "step_result" : "Success",
            "step_values" : [
               {
                  "name" : "show_debug_info",
                  "value" : true
               }
            ],
            "step_warnings" : []
         }
      }
   ],
   "updated_at" : "20191220T162604Z"
}
