{
  "completed_at": "20170925T163943Z",
  "completed_status": "Success",
  "created_at": "2017-09-25 16:35:43 +0000",
  "current_step": 5,
  "description": "",
  "eplusout_err": "Program Version,EnergyPlus, Version 8.7.0-78a111df4a, YMD=2017.09.25 16:37,IDD_Version 8.7.0\n   ** Warning ** Site:GroundTemperature:BuildingSurface: Some values fall outside the range of 15-25C.\n   **   ~~~   ** These values may be inappropriate.  Please consult the Input Output Reference for more details.\n   ** Warning ** ProcessScheduleInput: Schedule:Day:Interval=\"RES INFIL_U 1 BATH EXHAUST SCHEDULE ALLDAY1\", Blank Schedule Type Limits Name input -- will not be validated.\n   ** Warning ** ProcessScheduleInput: Schedule:Day:Interval=\"RES INFIL_U 1 BATH EXHAUST SCHEDULE ALLDAY10\", Blank Schedule Type Limits Name input -- will not be validated.\n   ** Warning ** ProcessScheduleInput: Schedule:Day:Interval=\"RES INFIL_U 1 BATH EXHAUST SCHEDULE ALLDAY11\", Blank Schedule Type Limits Name input -- will not be validated.\n   ** Warning ** ProcessScheduleInput: Schedule:Day:Interval=\"RES INFIL_U 1 BATH EXHAUST SCHEDULE ALLDAY12\", Blank Schedule Type Limits Name input -- will not be validated.\n   ** Warning ** ProcessScheduleInput: Schedule:Day:Interval=\"RES INFIL_U 1 BATH EXHAUST SCHEDULE ALLDAY2\", Blank Schedule Type Limits Name input -- will not be validated.\n   ** Warning ** ProcessScheduleInput: Schedule:Day:Interval=\"RES INFIL_U 1 BATH EXHAUST SCHEDULE ALLDAY3\", Blank Schedule Type Limits Name input -- will not be validated.\n   ** Warning ** ProcessScheduleInput: Schedule:Day:Interval=\"RES INFIL_U 1 BATH EXHAUST SCHEDULE ALLDAY4\", Blank Schedule Type Limits Name input -- will not be validated.\n   ** Warning ** ProcessScheduleInput: Schedule:Day:Interval=\"RES INFIL_U 1 BATH EXHAUST SCHEDULE ALLDAY5\", Blank Schedule Type Limits Name input -- will not be validated.\n   ** Warning ** ProcessScheduleInput: Schedule:Day:Interval=\"RES INFIL_U 1 BATH EXHAUST SCHEDULE ALLDAY6\", Blank Schedule Type Limits Name input -- will not be validated.\n   ** Warning ** ProcessScheduleInput: Schedule:Day:Interval=\"RES INFIL_U 1 BATH EXHAUST SCHEDULE ALLDAY7\", Blank Schedule Type Limits Name input -- will not be validated.\n   ** Warning ** ProcessScheduleInput: Schedule:Day:Interval=\"RES INFIL_U 1 BATH EXHAUST SCHEDULE ALLDAY8\", Blank Schedule Type Limits Name input -- will not be validated.\n   ** Warning ** ProcessScheduleInput: Schedule:Day:Interval=\"RES INFIL_U 1 BATH EXHAUST SCHEDULE ALLDAY9\", Blank Schedule Type Limits Name input -- will not be validated.\n   ** Warning ** ProcessScheduleInput: Schedule:Day:Interval=\"RES INFIL_U 1 CLOTHES DRYER EXHAUST SCHEDULE ALLDAY1\", Blank Schedule Type Limits Name input -- will not be validated.\n   ** Warning ** ProcessScheduleInput: Schedule:Day:Interval=\"RES INFIL_U 1 CLOTHES DRYER EXHAUST SCHEDULE ALLDAY10\", Blank Schedule Type Limits Name input -- will not be validated.\n   ** Warning ** ProcessScheduleInput: Schedule:Day:Interval=\"RES INFIL_U 1 CLOTHES DRYER EXHAUST SCHEDULE ALLDAY11\", Blank Schedule Type Limits Name input -- will not be validated.\n   ** Warning ** ProcessScheduleInput: Schedule:Day:Interval=\"RES INFIL_U 1 CLOTHES DRYER EXHAUST SCHEDULE ALLDAY12\", Blank Schedule Type Limits Name input -- will not be validated.\n   ** Warning ** ProcessScheduleInput: Schedule:Day:Interval=\"RES INFIL_U 1 CLOTHES DRYER EXHAUST SCHEDULE ALLDAY2\", Blank Schedule Type Limits Name input -- will not be validated.\n   ** Warning ** ProcessScheduleInput: Schedule:Day:Interval=\"RES INFIL_U 1 CLOTHES DRYER EXHAUST SCHEDULE ALLDAY3\", Blank Schedule Type Limits Name input -- will not be validated.\n   ** Warning ** ProcessScheduleInput: Schedule:Day:Interval=\"RES INFIL_U 1 CLOTHES DRYER EXHAUST SCHEDULE ALLDAY4\", Blank Schedule Type Limits Name input -- will not be validated.\n   ** Warning ** ProcessScheduleInput: Schedule:Day:Interval=\"RES INFIL_U 1 CLOTHES DRYER EXHAUST SCHEDULE ALLDAY5\", Blank Schedule Type Limits Name input -- will not be validated.\n   ** Warning ** ProcessScheduleInput: Schedule:Day:Interval=\"RES INFIL_U 1 CLOTHES DRYER EXHAUST SCHEDULE ALLDAY6\", Blank Schedule Type Limits Name input -- will not be validated.\n   ** Warning ** ProcessScheduleInput: Schedule:Day:Interval=\"RES INFIL_U 1 CLOTHES DRYER EXHAUST SCHEDULE ALLDAY7\", Blank Schedule Type Limits Name input -- will not be validated.\n   ** Warning ** ProcessScheduleInput: Schedule:Day:Interval=\"RES INFIL_U 1 CLOTHES DRYER EXHAUST SCHEDULE ALLDAY8\", Blank Schedule Type Limits Name input -- will not be validated.\n   ** Warning ** ProcessScheduleInput: Schedule:Day:Interval=\"RES INFIL_U 1 CLOTHES DRYER EXHAUST SCHEDULE ALLDAY9\", Blank Schedule Type Limits Name input -- will not be validated.\n   ** Warning ** ProcessScheduleInput: Schedule:Day:Interval=\"RES INFIL_U 1 RANGE HOOD SCHEDULE ALLDAY1\", Blank Schedule Type Limits Name input -- will not be validated.\n   ** Warning ** ProcessScheduleInput: Schedule:Day:Interval=\"RES INFIL_U 1 RANGE HOOD SCHEDULE ALLDAY10\", Blank Schedule Type Limits Name input -- will not be validated.\n   ** Warning ** ProcessScheduleInput: Schedule:Day:Interval=\"RES INFIL_U 1 RANGE HOOD SCHEDULE ALLDAY11\", Blank Schedule Type Limits Name input -- will not be validated.\n   ** Warning ** ProcessScheduleInput: Schedule:Day:Interval=\"RES INFIL_U 1 RANGE HOOD SCHEDULE ALLDAY12\", Blank Schedule Type Limits Name input -- will not be validated.\n   ** Warning ** ProcessScheduleInput: Schedule:Day:Interval=\"RES INFIL_U 1 RANGE HOOD SCHEDULE ALLDAY2\", Blank Schedule Type Limits Name input -- will not be validated.\n   ** Warning ** ProcessScheduleInput: Schedule:Day:Interval=\"RES INFIL_U 1 RANGE HOOD SCHEDULE ALLDAY3\", Blank Schedule Type Limits Name input -- will not be validated.\n   ** Warning ** ProcessScheduleInput: Schedule:Day:Interval=\"RES INFIL_U 1 RANGE HOOD SCHEDULE ALLDAY4\", Blank Schedule Type Limits Name input -- will not be validated.\n   ** Warning ** ProcessScheduleInput: Schedule:Day:Interval=\"RES INFIL_U 1 RANGE HOOD SCHEDULE ALLDAY5\", Blank Schedule Type Limits Name input -- will not be validated.\n   ** Warning ** ProcessScheduleInput: Schedule:Day:Interval=\"RES INFIL_U 1 RANGE HOOD SCHEDULE ALLDAY6\", Blank Schedule Type Limits Name input -- will not be validated.\n   ** Warning ** ProcessScheduleInput: Schedule:Day:Interval=\"RES INFIL_U 1 RANGE HOOD SCHEDULE ALLDAY7\", Blank Schedule Type Limits Name input -- will not be validated.\n   ** Warning ** ProcessScheduleInput: Schedule:Day:Interval=\"RES INFIL_U 1 RANGE HOOD SCHEDULE ALLDAY8\", Blank Schedule Type Limits Name input -- will not be validated.\n   ** Warning ** ProcessScheduleInput: Schedule:Day:Interval=\"RES INFIL_U 1 RANGE HOOD SCHEDULE ALLDAY9\", Blank Schedule Type Limits Name input -- will not be validated.\n   ** Warning ** ProcessScheduleInput: Schedule:Day:Interval=\"RES MV_U 1 ENERGY SCHEDULE ALLDAY1\", Blank Schedule Type Limits Name input -- will not be validated.\n   ** Warning ** ProcessScheduleInput: Schedule:Day:Interval=\"RES MV_U 1 ENERGY SCHEDULE ALLDAY10\", Blank Schedule Type Limits Name input -- will not be validated.\n   ** Warning ** ProcessScheduleInput: Schedule:Day:Interval=\"RES MV_U 1 ENERGY SCHEDULE ALLDAY11\", Blank Schedule Type Limits Name input -- will not be validated.\n   ** Warning ** ProcessScheduleInput: Schedule:Day:Interval=\"RES MV_U 1 ENERGY SCHEDULE ALLDAY12\", Blank Schedule Type Limits Name input -- will not be validated.\n   ** Warning ** ProcessScheduleInput: Schedule:Day:Interval=\"RES MV_U 1 ENERGY SCHEDULE ALLDAY2\", Blank Schedule Type Limits Name input -- will not be validated.\n   ** Warning ** ProcessScheduleInput: Schedule:Day:Interval=\"RES MV_U 1 ENERGY SCHEDULE ALLDAY3\", Blank Schedule Type Limits Name input -- will not be validated.\n   ** Warning ** ProcessScheduleInput: Schedule:Day:Interval=\"RES MV_U 1 ENERGY SCHEDULE ALLDAY4\", Blank Schedule Type Limits Name input -- will not be validated.\n   ** Warning ** ProcessScheduleInput: Schedule:Day:Interval=\"RES MV_U 1 ENERGY SCHEDULE ALLDAY5\", Blank Schedule Type Limits Name input -- will not be validated.\n   ** Warning ** ProcessScheduleInput: Schedule:Day:Interval=\"RES MV_U 1 ENERGY SCHEDULE ALLDAY6\", Blank Schedule Type Limits Name input -- will not be validated.\n   ** Warning ** ProcessScheduleInput: Schedule:Day:Interval=\"RES MV_U 1 ENERGY SCHEDULE ALLDAY7\", Blank Schedule Type Limits Name input -- will not be validated.\n   ** Warning ** ProcessScheduleInput: Schedule:Day:Interval=\"RES MV_U 1 ENERGY SCHEDULE ALLDAY8\", Blank Schedule Type Limits Name input -- will not be validated.\n   ** Warning ** ProcessScheduleInput: Schedule:Day:Interval=\"RES MV_U 1 ENERGY SCHEDULE ALLDAY9\", Blank Schedule Type Limits Name input -- will not be validated.\n   ** Warning ** ProcessScheduleInput: Schedule:Day:Interval=\"RES MV_U 1 SCHEDULE ALLDAY1\", Blank Schedule Type Limits Name input -- will not be validated.\n   ** Warning ** ProcessScheduleInput: Schedule:Day:Interval=\"RES MV_U 1 SCHEDULE ALLDAY10\", Blank Schedule Type Limits Name input -- will not be validated.\n   ** Warning ** ProcessScheduleInput: Schedule:Day:Interval=\"RES MV_U 1 SCHEDULE ALLDAY11\", Blank Schedule Type Limits Name input -- will not be validated.\n   ** Warning ** ProcessScheduleInput: Schedule:Day:Interval=\"RES MV_U 1 SCHEDULE ALLDAY12\", Blank Schedule Type Limits Name input -- will not be validated.\n   ** Warning ** ProcessScheduleInput: Schedule:Day:Interval=\"RES MV_U 1 SCHEDULE ALLDAY2\", Blank Schedule Type Limits Name input -- will not be validated.\n   ** Warning ** ProcessScheduleInput: Schedule:Day:Interval=\"RES MV_U 1 SCHEDULE ALLDAY3\", Blank Schedule Type Limits Name input -- will not be validated.\n   ** Warning ** ProcessScheduleInput: Schedule:Day:Interval=\"RES MV_U 1 SCHEDULE ALLDAY4\", Blank Schedule Type Limits Name input -- will not be validated.\n   ** Warning ** ProcessScheduleInput: Schedule:Day:Interval=\"RES MV_U 1 SCHEDULE ALLDAY5\", Blank Schedule Type Limits Name input -- will not be validated.\n   ** Warning ** ProcessScheduleInput: Schedule:Day:Interval=\"RES MV_U 1 SCHEDULE ALLDAY6\", Blank Schedule Type Limits Name input -- will not be validated.\n   ** Warning ** ProcessScheduleInput: Schedule:Day:Interval=\"RES MV_U 1 SCHEDULE ALLDAY7\", Blank Schedule Type Limits Name input -- will not be validated.\n   ** Warning ** ProcessScheduleInput: Schedule:Day:Interval=\"RES MV_U 1 SCHEDULE ALLDAY8\", Blank Schedule Type Limits Name input -- will not be validated.\n   ** Warning ** ProcessScheduleInput: Schedule:Day:Interval=\"RES MV_U 1 SCHEDULE ALLDAY9\", Blank Schedule Type Limits Name input -- will not be validated.\n   ** Warning ** ProcessScheduleInput: Schedule:Day:Interval=\"RES NV_U 1 AVAILABILITY SCHEDULE ALLDAY1 ON\", Blank Schedule Type Limits Name input -- will not be validated.\n   ** Warning ** ProcessScheduleInput: Schedule:Day:Interval=\"RES NV_U 1 AVAILABILITY SCHEDULE ALLDAY1 ON 1\", Blank Schedule Type Limits Name input -- will not be validated.\n   ** Warning ** ProcessScheduleInput: Schedule:Day:Interval=\"RES NV_U 1 AVAILABILITY SCHEDULE ALLDAY1 ON 10\", Blank Schedule Type Limits Name input -- will not be validated.\n   ** Warning ** ProcessScheduleInput: Schedule:Day:Interval=\"RES NV_U 1 AVAILABILITY SCHEDULE ALLDAY1 ON 11\", Blank Schedule Type Limits Name input -- will not be validated.\n   ** Warning ** ProcessScheduleInput: Schedule:Day:Interval=\"RES NV_U 1 AVAILABILITY SCHEDULE ALLDAY1 ON 2\", Blank Schedule Type Limits Name input -- will not be validated.\n   ** Warning ** ProcessScheduleInput: Schedule:Day:Interval=\"RES NV_U 1 AVAILABILITY SCHEDULE ALLDAY1 ON 3\", Blank Schedule Type Limits Name input -- will not be validated.\n   ** Warning ** ProcessScheduleInput: Schedule:Day:Interval=\"RES NV_U 1 AVAILABILITY SCHEDULE ALLDAY1 ON 4\", Blank Schedule Type Limits Name input -- will not be validated.\n   ** Warning ** ProcessScheduleInput: Schedule:Day:Interval=\"RES NV_U 1 AVAILABILITY SCHEDULE ALLDAY1 ON 5\", Blank Schedule Type Limits Name input -- will not be validated.\n   ** Warning ** ProcessScheduleInput: Schedule:Day:Interval=\"RES NV_U 1 AVAILABILITY SCHEDULE ALLDAY1 ON 6\", Blank Schedule Type Limits Name input -- will not be validated.\n   ** Warning ** ProcessScheduleInput: Schedule:Day:Interval=\"RES NV_U 1 AVAILABILITY SCHEDULE ALLDAY1 ON 7\", Blank Schedule Type Limits Name input -- will not be validated.\n   ** Warning ** ProcessScheduleInput: Schedule:Day:Interval=\"RES NV_U 1 AVAILABILITY SCHEDULE ALLDAY1 ON 8\", Blank Schedule Type Limits Name input -- will not be validated.\n   ** Warning ** ProcessScheduleInput: Schedule:Day:Interval=\"RES NV_U 1 AVAILABILITY SCHEDULE ALLDAY1 ON 9\", Blank Schedule Type Limits Name input -- will not be validated.\n   ** Warning ** ProcessScheduleInput: Schedule:Day:Interval=\"RES NV_U 1 TEMP SCHEDULE ALLDAY1\", Blank Schedule Type Limits Name input -- will not be validated.\n   ** Warning ** ProcessScheduleInput: Schedule:Day:Interval=\"RES NV_U 1 TEMP SCHEDULE ALLDAY10\", Blank Schedule Type Limits Name input -- will not be validated.\n   ** Warning ** ProcessScheduleInput: Schedule:Day:Interval=\"RES NV_U 1 TEMP SCHEDULE ALLDAY11\", Blank Schedule Type Limits Name input -- will not be validated.\n   ** Warning ** ProcessScheduleInput: Schedule:Day:Interval=\"RES NV_U 1 TEMP SCHEDULE ALLDAY12\", Blank Schedule Type Limits Name input -- will not be validated.\n   ** Warning ** ProcessScheduleInput: Schedule:Day:Interval=\"RES NV_U 1 TEMP SCHEDULE ALLDAY2\", Blank Schedule Type Limits Name input -- will not be validated.\n   ** Warning ** ProcessScheduleInput: Schedule:Day:Interval=\"RES NV_U 1 TEMP SCHEDULE ALLDAY3\", Blank Schedule Type Limits Name input -- will not be validated.\n   ** Warning ** ProcessScheduleInput: Schedule:Day:Interval=\"RES NV_U 1 TEMP SCHEDULE ALLDAY4\", Blank Schedule Type Limits Name input -- will not be validated.\n   ** Warning ** ProcessScheduleInput: Schedule:Day:Interval=\"RES NV_U 1 TEMP SCHEDULE ALLDAY5\", Blank Schedule Type Limits Name input -- will not be validated.\n   ** Warning ** ProcessScheduleInput: Schedule:Day:Interval=\"RES NV_U 1 TEMP SCHEDULE ALLDAY6\", Blank Schedule Type Limits Name input -- will not be validated.\n   ** Warning ** ProcessScheduleInput: Schedule:Day:Interval=\"RES NV_U 1 TEMP SCHEDULE ALLDAY7\", Blank Schedule Type Limits Name input -- will not be validated.\n   ** Warning ** ProcessScheduleInput: Schedule:Day:Interval=\"RES NV_U 1 TEMP SCHEDULE ALLDAY8\", Blank Schedule Type Limits Name input -- will not be validated.\n   ** Warning ** ProcessScheduleInput: Schedule:Day:Interval=\"RES NV_U 1 TEMP SCHEDULE ALLDAY9\", Blank Schedule Type Limits Name input -- will not be validated.\n   ** Warning ** ProcessScheduleInput: Schedule:Day:Interval=\"RESIDENTIAL CEILING FAN SCHEDULE ALLDAY1\", Blank Schedule Type Limits Name input -- will not be validated.\n   ** Warning ** ProcessScheduleInput: Schedule:Day:Interval=\"RESIDENTIAL CEILING FAN SCHEDULE ALLDAY10\", Blank Schedule Type Limits Name input -- will not be validated.\n   ** Warning ** ProcessScheduleInput: Schedule:Day:Interval=\"RESIDENTIAL CEILING FAN SCHEDULE ALLDAY11\", Blank Schedule Type Limits Name input -- will not be validated.\n   ** Warning ** ProcessScheduleInput: Schedule:Day:Interval=\"RESIDENTIAL CEILING FAN SCHEDULE ALLDAY12\", Blank Schedule Type Limits Name input -- will not be validated.\n   ** Warning ** ProcessScheduleInput: Schedule:Day:Interval=\"RESIDENTIAL CEILING FAN SCHEDULE ALLDAY2\", Blank Schedule Type Limits Name input -- will not be validated.\n   ** Warning ** ProcessScheduleInput: Schedule:Day:Interval=\"RESIDENTIAL CEILING FAN SCHEDULE ALLDAY3\", Blank Schedule Type Limits Name input -- will not be validated.\n   ** Warning ** ProcessScheduleInput: Schedule:Day:Interval=\"RESIDENTIAL CEILING FAN SCHEDULE ALLDAY4\", Blank Schedule Type Limits Name input -- will not be validated.\n   ** Warning ** ProcessScheduleInput: Schedule:Day:Interval=\"RESIDENTIAL CEILING FAN SCHEDULE ALLDAY5\", Blank Schedule Type Limits Name input -- will not be validated.\n   ** Warning ** ProcessScheduleInput: Schedule:Day:Interval=\"RESIDENTIAL CEILING FAN SCHEDULE ALLDAY6\", Blank Schedule Type Limits Name input -- will not be validated.\n   ** Warning ** ProcessScheduleInput: Schedule:Day:Interval=\"RESIDENTIAL CEILING FAN SCHEDULE ALLDAY7\", Blank Schedule Type Limits Name input -- will not be validated.\n   ** Warning ** ProcessScheduleInput: Schedule:Day:Interval=\"RESIDENTIAL CEILING FAN SCHEDULE ALLDAY8\", Blank Schedule Type Limits Name input -- will not be validated.\n   ** Warning ** ProcessScheduleInput: Schedule:Day:Interval=\"RESIDENTIAL CEILING FAN SCHEDULE ALLDAY9\", Blank Schedule Type Limits Name input -- will not be validated.\n   ** Warning ** ProcessScheduleInput: Schedule:Day:Interval=\"RESIDENTIAL WINDOW SHADING SCHEDULE ALLDAY1\", Blank Schedule Type Limits Name input -- will not be validated.\n   ** Warning ** ProcessScheduleInput: Schedule:Day:Interval=\"RESIDENTIAL WINDOW SHADING SCHEDULE ALLDAY10\", Blank Schedule Type Limits Name input -- will not be validated.\n   ** Warning ** ProcessScheduleInput: Schedule:Day:Interval=\"RESIDENTIAL WINDOW SHADING SCHEDULE ALLDAY11\", Blank Schedule Type Limits Name input -- will not be validated.\n   ** Warning ** ProcessScheduleInput: Schedule:Day:Interval=\"RESIDENTIAL WINDOW SHADING SCHEDULE ALLDAY12\", Blank Schedule Type Limits Name input -- will not be validated.\n   ** Warning ** ProcessScheduleInput: Schedule:Day:Interval=\"RESIDENTIAL WINDOW SHADING SCHEDULE ALLDAY2\", Blank Schedule Type Limits Name input -- will not be validated.\n   ** Warning ** ProcessScheduleInput: Schedule:Day:Interval=\"RESIDENTIAL WINDOW SHADING SCHEDULE ALLDAY3\", Blank Schedule Type Limits Name input -- will not be validated.\n   ** Warning ** ProcessScheduleInput: Schedule:Day:Interval=\"RESIDENTIAL WINDOW SHADING SCHEDULE ALLDAY4\", Blank Schedule Type Limits Name input -- will not be validated.\n   ** Warning ** ProcessScheduleInput: Schedule:Day:Interval=\"RESIDENTIAL WINDOW SHADING SCHEDULE ALLDAY5\", Blank Schedule Type Limits Name input -- will not be validated.\n   ** Warning ** ProcessScheduleInput: Schedule:Day:Interval=\"RESIDENTIAL WINDOW SHADING SCHEDULE ALLDAY6\", Blank Schedule Type Limits Name input -- will not be validated.\n   ** Warning ** ProcessScheduleInput: Schedule:Day:Interval=\"RESIDENTIAL WINDOW SHADING SCHEDULE ALLDAY7\", Blank Schedule Type Limits Name input -- will not be validated.\n   ** Warning ** ProcessScheduleInput: Schedule:Day:Interval=\"RESIDENTIAL WINDOW SHADING SCHEDULE ALLDAY8\", Blank Schedule Type Limits Name input -- will not be validated.\n   ** Warning ** ProcessScheduleInput: Schedule:Day:Interval=\"RESIDENTIAL WINDOW SHADING SCHEDULE ALLDAY9\", Blank Schedule Type Limits Name input -- will not be validated.\n   ** Warning ** ProcessScheduleInput: Schedule:Day:Interval=\"SCHEDULE DAY 26\", Blank Schedule Type Limits Name input -- will not be validated.\n   ** Warning ** ProcessScheduleInput: Schedule:Day:Interval=\"SCHEDULE DAY 27\", Blank Schedule Type Limits Name input -- will not be validated.\n   ** Warning ** ProcessScheduleInput: Schedule:Day:Interval=\"SCHEDULE DAY 28\", Blank Schedule Type Limits Name input -- will not be validated.\n   ** Warning ** ProcessScheduleInput: Schedule:Day:Interval=\"SCHEDULE DAY 29\", Blank Schedule Type Limits Name input -- will not be validated.\n   ** Warning ** ProcessScheduleInput: Schedule:Day:Interval=\"SCHEDULE DAY 3\", Blank Schedule Type Limits Name input -- will not be validated.\n   ** Warning ** ProcessScheduleInput: Schedule:Day:Interval=\"SCHEDULE DAY 30\", Blank Schedule Type Limits Name input -- will not be validated.\n   ** Warning ** ProcessScheduleInput: Schedule:Day:Interval=\"SCHEDULE DAY 31\", Blank Schedule Type Limits Name input -- will not be validated.\n   ** Warning ** ProcessScheduleInput: Schedule:Day:Interval=\"SCHEDULE DAY 32\", Blank Schedule Type Limits Name input -- will not be validated.\n   ** Warning ** ProcessScheduleInput: Schedule:Day:Interval=\"SCHEDULE DAY 9\", Blank Schedule Type Limits Name input -- will not be validated.\n   ** Warning ** ProcessScheduleInput: Schedule:Year=\"RES INFIL_U 1 BATH EXHAUST SCHEDULE\", Blank Schedule Type Limits Name input -- will not be validated.\n   ** Warning ** ProcessScheduleInput: Schedule:Year=\"RES INFIL_U 1 CLOTHES DRYER EXHAUST SCHEDULE\", Blank Schedule Type Limits Name input -- will not be validated.\n   ** Warning ** ProcessScheduleInput: Schedule:Year=\"RES INFIL_U 1 RANGE HOOD SCHEDULE\", Blank Schedule Type Limits Name input -- will not be validated.\n   ** Warning ** ProcessScheduleInput: Schedule:Year=\"RES MV_U 1 ENERGY SCHEDULE\", Blank Schedule Type Limits Name input -- will not be validated.\n   ** Warning ** ProcessScheduleInput: Schedule:Year=\"RES MV_U 1 SCHEDULE\", Blank Schedule Type Limits Name input -- will not be validated.\n   ** Warning ** ProcessScheduleInput: Schedule:Year=\"RES NV_U 1 AVAIL SCHEDULE\", Blank Schedule Type Limits Name input -- will not be validated.\n   ** Warning ** ProcessScheduleInput: Schedule:Year=\"RES NV_U 1 TEMP SCHEDULE\", Blank Schedule Type Limits Name input -- will not be validated.\n   ** Warning ** ProcessScheduleInput: Schedule:Year=\"RESIDENTIAL CEILING FAN SCHEDULE\", Blank Schedule Type Limits Name input -- will not be validated.\n   ** Warning ** ProcessScheduleInput: Schedule:Year=\"RESIDENTIAL WINDOW SHADING SCHEDULE\", Blank Schedule Type Limits Name input -- will not be validated.\n   ** Warning ** ProcessScheduleInput: Schedule:Constant=\"RESIDENTIAL BATH TEMPERATURE SCHEDULE\", Blank Schedule Type Limits Name input -- will not be validated.\n   ** Warning ** ProcessScheduleInput: Schedule:Constant=\"RESIDENTIAL CLOTHES WASHER TEMPERATURE SCHEDULE\", Blank Schedule Type Limits Name input -- will not be validated.\n   ** Warning ** ProcessScheduleInput: Schedule:Constant=\"RESIDENTIAL DISHWASHER TEMPERATURE SCHEDULE\", Blank Schedule Type Limits Name input -- will not be validated.\n   ** Warning ** ProcessScheduleInput: Schedule:Constant=\"RESIDENTIAL SHOWER TEMPERATURE SCHEDULE\", Blank Schedule Type Limits Name input -- will not be validated.\n   ** Warning ** ProcessScheduleInput: Schedule:Constant=\"RESIDENTIAL SINK TEMPERATURE SCHEDULE\", Blank Schedule Type Limits Name input -- will not be validated.\n   ************* Note that the following warning(s) may/will occur if you have not enclosed your zone completely.\n   ** Warning ** Entered Zone Volumes differ from calculated zone volume(s).\n   **   ~~~   ** ...use Output:Diagnostics,DisplayExtraWarnings; to show more details on individual zones.\n   ** Warning ** The Standard Ratings is calculated for Coil:Cooling:DX:SingleSpeed = RESIDENTIAL CENTRAL AC COOLING COIL but not at the AHRI test condition due to curve out of bound.\n   **   ~~~   **  Review the Standard Ratings calculations in the Engineering Reference for this coil type. Also, use Output:Diagnostics, DisplayExtraWarnings for further guidance.\n   ** Warning ** Check input. Pump nominal power or motor efficiency is set to 0, for pump=PUMP VARIABLE SPEED 1\n   ** Warning ** Output:Meter: invalid Name=\"HEATING:DISTRICTCOOLING\" - not found.\n   ** Warning ** Output:Meter: invalid Name=\"HEATING:DISTRICTHEATING\" - not found.\n   ** Warning ** Output:Meter: invalid Name=\"HEATING:WATER\" - not found.\n   ** Warning ** Output:Meter: invalid Name=\"HEATING:FUELOIL#1\" - not found.\n   ** Warning ** Output:Meter: invalid Name=\"HEATING:PROPANE\" - not found.\n   ** Warning ** Output:Meter: invalid Name=\"COOLING:GAS\" - not found.\n   ** Warning ** Output:Meter: invalid Name=\"COOLING:DISTRICTCOOLING\" - not found.\n   ** Warning ** Output:Meter: invalid Name=\"COOLING:DISTRICTHEATING\" - not found.\n   ** Warning ** Output:Meter: invalid Name=\"COOLING:WATER\" - not found.\n   ** Warning ** Output:Meter: invalid Name=\"COOLING:FUELOIL#1\" - not found.\n   ** Warning ** Output:Meter: invalid Name=\"COOLING:PROPANE\" - not found.\n   ** Warning ** Output:Meter: invalid Name=\"INTERIORLIGHTS:GAS\" - not found.\n   ** Warning ** Output:Meter: invalid Name=\"INTERIORLIGHTS:DISTRICTCOOLING\" - not found.\n   ** Warning ** Output:Meter: invalid Name=\"INTERIORLIGHTS:DISTRICTHEATING\" - not found.\n   ** Warning ** Output:Meter: invalid Name=\"INTERIORLIGHTS:WATER\" - not found.\n   ** Warning ** Output:Meter: invalid Name=\"INTERIORLIGHTS:FUELOIL#1\" - not found.\n   ** Warning ** Output:Meter: invalid Name=\"INTERIORLIGHTS:PROPANE\" - not found.\n   ** Warning ** Output:Meter: invalid Name=\"EXTERIORLIGHTS:GAS\" - not found.\n   ** Warning ** Output:Meter: invalid Name=\"EXTERIORLIGHTS:DISTRICTCOOLING\" - not found.\n   ** Warning ** Output:Meter: invalid Name=\"EXTERIORLIGHTS:DISTRICTHEATING\" - not found.\n   ** Warning ** Output:Meter: invalid Name=\"EXTERIORLIGHTS:WATER\" - not found.\n   ** Warning ** Output:Meter: invalid Name=\"EXTERIORLIGHTS:FUELOIL#1\" - not found.\n   ** Warning ** Output:Meter: invalid Name=\"EXTERIORLIGHTS:PROPANE\" - not found.\n   ** Warning ** Output:Meter: invalid Name=\"INTERIOREQUIPMENT:DISTRICTCOOLING\" - not found.\n   ** Warning ** Output:Meter: invalid Name=\"INTERIOREQUIPMENT:DISTRICTHEATING\" - not found.\n   ** Warning ** Output:Meter: invalid Name=\"INTERIOREQUIPMENT:WATER\" - not found.\n   ** Warning ** Output:Meter: invalid Name=\"INTERIOREQUIPMENT:FUELOIL#1\" - not found.\n   ** Warning ** Output:Meter: invalid Name=\"INTERIOREQUIPMENT:PROPANE\" - not found.\n   ** Warning ** Output:Meter: invalid Name=\"EXTERIOREQUIPMENT:ELECTRICITY\" - not found.\n   ** Warning ** Output:Meter: invalid Name=\"EXTERIOREQUIPMENT:GAS\" - not found.\n   ** Warning ** Output:Meter: invalid Name=\"EXTERIOREQUIPMENT:DISTRICTCOOLING\" - not found.\n   ** Warning ** Output:Meter: invalid Name=\"EXTERIOREQUIPMENT:DISTRICTHEATING\" - not found.\n   ** Warning ** Output:Meter: invalid Name=\"EXTERIOREQUIPMENT:WATER\" - not found.\n   ** Warning ** Output:Meter: invalid Name=\"EXTERIOREQUIPMENT:FUELOIL#1\" - not found.\n   ** Warning ** Output:Meter: invalid Name=\"EXTERIOREQUIPMENT:PROPANE\" - not found.\n   ** Warning ** Output:Meter: invalid Name=\"FANS:GAS\" - not found.\n   ** Warning ** Output:Meter: invalid Name=\"FANS:DISTRICTCOOLING\" - not found.\n   ** Warning ** Output:Meter: invalid Name=\"FANS:DISTRICTHEATING\" - not found.\n   ** Warning ** Output:Meter: invalid Name=\"FANS:WATER\" - not found.\n   ** Warning ** Output:Meter: invalid Name=\"FANS:FUELOIL#1\" - not found.\n   ** Warning ** Output:Meter: invalid Name=\"FANS:PROPANE\" - not found.\n   ** Warning ** Output:Meter: invalid Name=\"PUMPS:GAS\" - not found.\n   ** Warning ** Output:Meter: invalid Name=\"PUMPS:DISTRICTCOOLING\" - not found.\n   ** Warning ** Output:Meter: invalid Name=\"PUMPS:DISTRICTHEATING\" - not found.\n   ** Warning ** Output:Meter: invalid Name=\"PUMPS:WATER\" - not found.\n   ** Warning ** Output:Meter: invalid Name=\"PUMPS:FUELOIL#1\" - not found.\n   ** Warning ** Output:Meter: invalid Name=\"PUMPS:PROPANE\" - not found.\n   ** Warning ** Output:Meter: invalid Name=\"HEATREJECTION:ELECTRICITY\" - not found.\n   ** Warning ** Output:Meter: invalid Name=\"HEATREJECTION:GAS\" - not found.\n   ** Warning ** Output:Meter: invalid Name=\"HEATREJECTION:DISTRICTCOOLING\" - not found.\n   ** Warning ** Output:Meter: invalid Name=\"HEATREJECTION:DISTRICTHEATING\" - not found.\n   ** Warning ** Output:Meter: invalid Name=\"HEATREJECTION:WATER\" - not found.\n   ** Warning ** Output:Meter: invalid Name=\"HEATREJECTION:FUELOIL#1\" - not found.\n   ** Warning ** Output:Meter: invalid Name=\"HEATREJECTION:PROPANE\" - not found.\n   ** Warning ** Output:Meter: invalid Name=\"HUMIDIFIER:ELECTRICITY\" - not found.\n   ** Warning ** Output:Meter: invalid Name=\"HUMIDIFIER:GAS\" - not found.\n   ** Warning ** Output:Meter: invalid Name=\"HUMIDIFIER:DISTRICTCOOLING\" - not found.\n   ** Warning ** Output:Meter: invalid Name=\"HUMIDIFIER:DISTRICTHEATING\" - not found.\n   ** Warning ** Output:Meter: invalid Name=\"HUMIDIFIER:WATER\" - not found.\n   ** Warning ** Output:Meter: invalid Name=\"HUMIDIFIER:FUELOIL#1\" - not found.\n   ** Warning ** Output:Meter: invalid Name=\"HUMIDIFIER:PROPANE\" - not found.\n   ** Warning ** Output:Meter: invalid Name=\"HEATRECOVERY:ELECTRICITY\" - not found.\n   ** Warning ** Output:Meter: invalid Name=\"HEATRECOVERY:GAS\" - not found.\n   ** Warning ** Output:Meter: invalid Name=\"HEATRECOVERY:DISTRICTCOOLING\" - not found.\n   ** Warning ** Output:Meter: invalid Name=\"HEATRECOVERY:DISTRICTHEATING\" - not found.\n   ** Warning ** Output:Meter: invalid Name=\"HEATRECOVERY:WATER\" - not found.\n   ** Warning ** Output:Meter: invalid Name=\"HEATRECOVERY:FUELOIL#1\" - not found.\n   ** Warning ** Output:Meter: invalid Name=\"HEATRECOVERY:PROPANE\" - not found.\n   ** Warning ** Output:Meter: invalid Name=\"WATERSYSTEMS:DISTRICTCOOLING\" - not found.\n   ** Warning ** Output:Meter: invalid Name=\"WATERSYSTEMS:DISTRICTHEATING\" - not found.\n   ** Warning ** Output:Meter: invalid Name=\"WATERSYSTEMS:FUELOIL#1\" - not found.\n   ** Warning ** Output:Meter: invalid Name=\"WATERSYSTEMS:PROPANE\" - not found.\n   ** Warning ** Output:Meter: invalid Name=\"REFRIGERATION:ELECTRICITY\" - not found.\n   ** Warning ** Output:Meter: invalid Name=\"REFRIGERATION:GAS\" - not found.\n   ** Warning ** Output:Meter: invalid Name=\"REFRIGERATION:DISTRICTCOOLING\" - not found.\n   ** Warning ** Output:Meter: invalid Name=\"REFRIGERATION:DISTRICTHEATING\" - not found.\n   ** Warning ** Output:Meter: invalid Name=\"REFRIGERATION:WATER\" - not found.\n   ** Warning ** Output:Meter: invalid Name=\"REFRIGERATION:FUELOIL#1\" - not found.\n   ** Warning ** Output:Meter: invalid Name=\"REFRIGERATION:PROPANE\" - not found.\n   ** Warning ** Output:Meter: invalid Name=\"GENERATORS:ELECTRICITY\" - not found.\n   ** Warning ** Output:Meter: invalid Name=\"GENERATORS:GAS\" - not found.\n   ** Warning ** Output:Meter: invalid Name=\"GENERATORS:DISTRICTCOOLING\" - not found.\n   ** Warning ** Output:Meter: invalid Name=\"GENERATORS:DISTRICTHEATING\" - not found.\n   ** Warning ** Output:Meter: invalid Name=\"GENERATORS:WATER\" - not found.\n   ** Warning ** Output:Meter: invalid Name=\"GENERATORS:FUELOIL#1\" - not found.\n   ** Warning ** Output:Meter: invalid Name=\"GENERATORS:PROPANE\" - not found.\n   ** Warning ** Output:Meter: invalid Name=\"DISTRICTCOOLING:FACILITY\" - not found.\n   ** Warning ** Output:Meter: invalid Name=\"DISTRICTHEATING:FACILITY\" - not found.\n   ** Warning ** Output:Meter: invalid Name=\"FUELOIL#1:FACILITY\" - not found.\n   ** Warning ** Output:Meter: invalid Name=\"PROPANE:FACILITY\" - not found.\n   ** Warning ** Output:Meter: invalid Name=\"DISTRICTCOOLING:FACILITY\" - not found.\n   ** Warning ** Output:Meter: invalid Name=\"DISTRICTHEATING:FACILITY\" - not found.\n   ** Warning ** Output:Meter:MeterFileOnly requested for \"Electricity:Facility\" (TimeStep), already on \"Output:Meter\". Will report to both eplusout.eso and eplusout.mtr\n   ************* Testing Individual Branch Integrity\n   ************* All Branches passed integrity testing\n   ************* Testing Individual Supply Air Path Integrity\n   ************* All Supply Air Paths passed integrity testing\n   ************* Testing Individual Return Air Path Integrity\n   ************* All Return Air Paths passed integrity testing\n   ************* No node connection errors were found.\n   ************* Beginning Simulation\n   ** Warning ** SimHVAC: Maximum iterations (20) exceeded for all HVAC loops, at RUN PERIOD, 02/07 06:40 - 06:50\n   **   ~~~   ** The solution for one or more plant systems did not appear to converge\n   **   ~~~   ** ...use Output:Diagnostics,DisplayExtraWarnings; to show more details on each max iteration exceeded.\n   ** Warning ** CalcDoe2DXCoil: Coil:Cooling:DX:SingleSpeed=\"RESIDENTIAL CENTRAL AC COOLING COIL\" - Air volume flow rate per watt of rated total cooling capacity is out of range at 6.854E-005 m3/s/W.\n   **   ~~~   **  Environment=RUN PERIOD, at Simulation time=03/31 00:00 - 00:10\n   **   ~~~   ** Expected range for VolumeFlowPerRatedTotalCapacity=[2.684E-005--6.713E-005]\n   **   ~~~   ** Possible causes include inconsistent air flow rates in system components,\n   **   ~~~   ** or variable air volume [VAV] system using incorrect coil type.\n   ************* Simulation Error Summary *************\n   ************* There are 2 unused schedules in input.\n   ************* There are 42 unused week schedules in input.\n   ************* There are 26 unused day schedules in input.\n   ************* Use Output:Diagnostics,DisplayUnusedSchedules; to see them.\n   *************\n   ************* ===== Recurring Surface Error Summary =====\n   ************* The following surface error messages occurred.\n   *************\n   ************* Base Surface does not surround subsurface errors occuring...\n   ************* Check that the GlobalGeometryRules object is expressing the proper starting corner and direction [CounterClockwise/Clockwise]\n   *************\n   ** Warning ** Base surface does not surround subsurface (CHKSBS), Overlap Status=No-Overlap\n   **   ~~~   **   The base surround errors occurred 1 times.\n   **   ~~~   ** Surface \"SURFACE 18\" misses SubSurface \"UNIT 1 - SURFACE 5 - DOOR\"\n   *************\n   **   ~~~   **   The base surround errors occurred 1 times (total).\n   *************\n   *************\n   ************* ===== Recurring Error Summary =====\n   ************* The following recurring error messages occurred.\n   *************\n   *************  ** Warning ** CalcDoe2DXCoil: Coil:Cooling:DX:SingleSpeed=\"RESIDENTIAL CENTRAL AC COOLING COIL\" - Air volume flow rate per watt of rated total cooling capacity is out of range error continues...\n   *************  **   ~~~   **   This error occurred 482250 total times;\n   *************  **   ~~~   **   during Warmup 0 times;\n   *************  **   ~~~   **   during Sizing 0 times.\n   *************  **   ~~~   **   Max=6.969579E-005  Min=6.735303E-005\n   *************\n   ************* EnergyPlus Warmup Error Summary. During Warmup: 0 Warning; 0 Severe Errors.\n   ************* EnergyPlus Sizing Error Summary. During Sizing: 0 Warning; 0 Severe Errors.\n   ************* EnergyPlus Completed Successfully-- 482480 Warning; 0 Severe Errors; Elapsed Time=00hr 00min 50.79sec\n",
  "file_format_version": "0.0.1",
  "file_paths": [
    "../weather",
    "../seeds",
    "../seed"
  ],
  "hash": "2B1D1AE8",
  "measure_paths": [
    "../measures"
  ],
  "name": "diag Autogenerated 443",
  "osa_id": "fe821d2c-df1e-4105-9ee6-6c7fef1463ae",
  "osd_id": "a4ce89b9-82d1-4d5d-a741-63d7919c7ca9",
  "run_directory": "./run",
  "seed_file": "EmptySeedModel.osm",
  "started_at": "20170925T163545Z",
  "steps": [
    {
      "arguments": {
        "building_id": 443,
        "number_of_buildings_represented": 16000000,
        "workflow_json": "measure-info.json"
      },
      "description": "Builds the OpenStudio Model for an existing building.",
      "measure_dir_name": "BuildExistingModel",
      "name": "build_existing_model",
      "result": {
        "completed_at": "20170925T163617Z",
        "measure_class_name": "BuildExistingModel",
        "measure_display_name": "Build Existing Model",
        "measure_name": "build_existing_model",
        "measure_taxonomy": "Whole Building.Space Types",
        "measure_type": "ModelMeasure",
        "measure_uid": "943cde68-f4bf-4e2e-a984-ab70cba2669c",
        "measure_version_id": "bab227f8-ebda-4efe-bde0-abbc0196dbc9",
        "measure_version_modified": "20170819T141850Z",
        "measure_xml_checksum": "9339BE01",
        "started_at": "20170925T163547Z",
        "stderr": "",
        "stdout": "[OpenStudio.Measure] <0> OSArgumentVector is deprecated, use OpenStudio::Measure::OSArgumentVector instead.\n[openstudio.measure.OSRunner] <1> Cannot find current Workflow Step\n[openstudio.WorkflowStepResult] <0> WorkflowStepResult value called with undefined stepResult, returning 'Success'\n[openstudio.measure.OSRunner] <1> Cannot find current Workflow Step\n[openstudio.WorkflowStepResult] <0> WorkflowStepResult value called with undefined stepResult, returning 'Success'\n[openstudio.measure.OSRunner] <1> Cannot find current Workflow Step\n[openstudio.WorkflowStepResult] <0> WorkflowStepResult value called with undefined stepResult, returning 'Success'\n[openstudio.measure.OSRunner] <1> Cannot find current Workflow Step\n[openstudio.WorkflowStepResult] <0> WorkflowStepResult value called with undefined stepResult, returning 'Success'\n[openstudio.measure.OSRunner] <1> Cannot find current Workflow Step\n[openstudio.WorkflowStepResult] <0> WorkflowStepResult value called with undefined stepResult, returning 'Success'\n[openstudio.measure.OSRunner] <1> Cannot find current Workflow Step\n[openstudio.WorkflowStepResult] <0> WorkflowStepResult value called with undefined stepResult, returning 'Success'\n[openstudio.measure.OSRunner] <1> Cannot find current Workflow Step\n[openstudio.WorkflowStepResult] <0> WorkflowStepResult value called with undefined stepResult, returning 'Success'\n[openstudio.measure.OSRunner] <1> Cannot find current Workflow Step\n[openstudio.WorkflowStepResult] <0> WorkflowStepResult value called with undefined stepResult, returning 'Success'\n[openstudio.measure.OSRunner] <1> Cannot find current Workflow Step\n[openstudio.measure.OSRunner] <1> Cannot find current Workflow Step\n[openstudio.WorkflowStepResult] <0> WorkflowStepResult value called with undefined stepResult, returning 'Success'\n[openstudio.measure.OSRunner] <1> Cannot find current Workflow Step\n[openstudio.WorkflowStepResult] <0> WorkflowStepResult value called with undefined stepResult, returning 'Success'\n[openstudio.measure.OSRunner] <1> Cannot find current Workflow Step\n[openstudio.WorkflowStepResult] <0> WorkflowStepResult value called with undefined stepResult, returning 'Success'\n[openstudio.measure.OSRunner] <1> Cannot find current Workflow Step\n[openstudio.WorkflowStepResult] <0> WorkflowStepResult value called with undefined stepResult, returning 'Success'\n[openstudio.measure.OSRunner] <1> Cannot find current Workflow Step\n[openstudio.WorkflowStepResult] <0> WorkflowStepResult value called with undefined stepResult, returning 'Success'\n[openstudio.measure.OSRunner] <1> Cannot find current Workflow Step\n[openstudio.WorkflowStepResult] <0> WorkflowStepResult value called with undefined stepResult, returning 'Success'\n[openstudio.measure.OSRunner] <1> Cannot find current Workflow Step\n[openstudio.WorkflowStepResult] <0> WorkflowStepResult value called with undefined stepResult, returning 'Success'\n[openstudio.measure.OSRunner] <1> Cannot find current Workflow Step\n[openstudio.measure.OSRunner] <1> Cannot find current Workflow Step\n[openstudio.WorkflowStepResult] <0> WorkflowStepResult value called with undefined stepResult, returning 'Success'\n[openstudio.measure.OSRunner] <1> Cannot find current Workflow Step\n[openstudio.WorkflowStepResult] <0> WorkflowStepResult value called with undefined stepResult, returning 'Success'\n[openstudio.measure.OSRunner] <1> Cannot find current Workflow Step\n[openstudio.WorkflowStepResult] <0> WorkflowStepResult value called with undefined stepResult, returning 'Success'\n[openstudio.measure.OSRunner] <1> Cannot find current Workflow Step\n[openstudio.WorkflowStepResult] <0> WorkflowStepResult value called with undefined stepResult, returning 'Success'\n[openstudio.measure.OSRunner] <1> Cannot find current Workflow Step\n[openstudio.measure.OSRunner] <1> Cannot find current Workflow Step\n[openstudio.WorkflowStepResult] <0> WorkflowStepResult value called with undefined stepResult, returning 'Success'\n[openstudio.measure.OSRunner] <1> Cannot find current Workflow Step\n[openstudio.WorkflowStepResult] <0> WorkflowStepResult value called with undefined stepResult, returning 'Success'\n[openstudio.measure.OSRunner] <1> Cannot find current Workflow Step\n[openstudio.WorkflowStepResult] <0> WorkflowStepResult value called with undefined stepResult, returning 'Success'\n[openstudio.measure.OSRunner] <1> Cannot find current Workflow Step\n[openstudio.WorkflowStepResult] <0> WorkflowStepResult value called with undefined stepResult, returning 'Success'\n[openstudio.measure.OSRunner] <1> Cannot find current Workflow Step\n[openstudio.WorkflowStepResult] <0> WorkflowStepResult value called with undefined stepResult, returning 'Success'\n[openstudio.measure.OSRunner] <1> Cannot find current Workflow Step\n[openstudio.WorkflowStepResult] <0> WorkflowStepResult value called with undefined stepResult, returning 'Success'\n[openstudio.measure.OSRunner] <1> Cannot find current Workflow Step\n[openstudio.WorkflowStepResult] <0> WorkflowStepResult value called with undefined stepResult, returning 'Success'\n[openstudio.measure.OSRunner] <1> Cannot find current Workflow Step\n[openstudio.WorkflowStepResult] <0> WorkflowStepResult value called with undefined stepResult, returning 'Success'\n[openstudio.measure.OSRunner] <1> Cannot find current Workflow Step\n[openstudio.WorkflowStepResult] <0> WorkflowStepResult value called with undefined stepResult, returning 'Success'\n[openstudio.measure.OSRunner] <1> Cannot find current Workflow Step\n[openstudio.WorkflowStepResult] <0> WorkflowStepResult value called with undefined stepResult, returning 'Success'\n[openstudio.measure.OSRunner] <1> Cannot find current Workflow Step\n[openstudio.WorkflowStepResult] <0> WorkflowStepResult value called with undefined stepResult, returning 'Success'\n[openstudio.measure.OSRunner] <1> Cannot find current Workflow Step\n[openstudio.WorkflowStepResult] <0> WorkflowStepResult value called with undefined stepResult, returning 'Success'\n[openstudio.measure.OSRunner] <1> Cannot find current Workflow Step\n[openstudio.WorkflowStepResult] <0> WorkflowStepResult value called with undefined stepResult, returning 'Success'\n[openstudio.measure.OSRunner] <1> Cannot find current Workflow Step\n[openstudio.WorkflowStepResult] <0> WorkflowStepResult value called with undefined stepResult, returning 'Success'\n[openstudio.measure.OSRunner] <1> Cannot find current Workflow Step\n[openstudio.WorkflowStepResult] <0> WorkflowStepResult value called with undefined stepResult, returning 'Success'\n[openstudio.measure.OSRunner] <1> Cannot find current Workflow Step\n[openstudio.WorkflowStepResult] <0> WorkflowStepResult value called with undefined stepResult, returning 'Success'\n[openstudio.measure.OSRunner] <1> Cannot find current Workflow Step\n[openstudio.WorkflowStepResult] <0> WorkflowStepResult value called with undefined stepResult, returning 'Success'\n[openstudio.measure.OSRunner] <1> Cannot find current Workflow Step\n[openstudio.WorkflowStepResult] <0> WorkflowStepResult value called with undefined stepResult, returning 'Success'\n[openstudio.measure.OSRunner] <1> Cannot find current Workflow Step\n[openstudio.WorkflowStepResult] <0> WorkflowStepResult value called with undefined stepResult, returning 'Success'\n[openstudio.measure.OSRunner] <1> Cannot find current Workflow Step\n[openstudio.WorkflowStepResult] <0> WorkflowStepResult value called with undefined stepResult, returning 'Success'\n[openstudio.measure.OSRunner] <1> Cannot find current Workflow Step\n[openstudio.WorkflowStepResult] <0> WorkflowStepResult value called with undefined stepResult, returning 'Success'\n[openstudio.measure.OSRunner] <1> Cannot find current Workflow Step\n[openstudio.WorkflowStepResult] <0> WorkflowStepResult value called with undefined stepResult, returning 'Success'\n[openstudio.measure.OSRunner] <1> Cannot find current Workflow Step\n[openstudio.WorkflowStepResult] <0> WorkflowStepResult value called with undefined stepResult, returning 'Success'\n[openstudio.measure.OSRunner] <1> Cannot find current Workflow Step\n[openstudio.WorkflowStepResult] <0> WorkflowStepResult value called with undefined stepResult, returning 'Success'\n[openstudio.measure.OSRunner] <1> Cannot find current Workflow Step\n[openstudio.WorkflowStepResult] <0> WorkflowStepResult value called with undefined stepResult, returning 'Success'\n[openstudio.measure.OSRunner] <1> Cannot find current Workflow Step\n[openstudio.WorkflowStepResult] <0> WorkflowStepResult value called with undefined stepResult, returning 'Success'\n[openstudio.measure.OSRunner] <1> Cannot find current Workflow Step\n[openstudio.WorkflowStepResult] <0> WorkflowStepResult value called with undefined stepResult, returning 'Success'\n[openstudio.measure.OSRunner] <1> Cannot find current Workflow Step\n[openstudio.WorkflowStepResult] <0> WorkflowStepResult value called with undefined stepResult, returning 'Success'\n[openstudio.measure.OSRunner] <1> Cannot find current Workflow Step\n[openstudio.WorkflowStepResult] <0> WorkflowStepResult value called with undefined stepResult, returning 'Success'\n[openstudio.measure.OSRunner] <1> Cannot find current Workflow Step\n[openstudio.WorkflowStepResult] <0> WorkflowStepResult value called with undefined stepResult, returning 'Success'\n[openstudio.measure.OSRunner] <1> Cannot find current Workflow Step\n[openstudio.WorkflowStepResult] <0> WorkflowStepResult value called with undefined stepResult, returning 'Success'\n[openstudio.measure.OSRunner] <1> Cannot find current Workflow Step\n[openstudio.WorkflowStepResult] <0> WorkflowStepResult value called with undefined stepResult, returning 'Success'\n[openstudio.measure.OSRunner] <1> Cannot find current Workflow Step\n[openstudio.WorkflowStepResult] <0> WorkflowStepResult value called with undefined stepResult, returning 'Success'\n[openstudio.measure.OSRunner] <1> Cannot find current Workflow Step\n[openstudio.WorkflowStepResult] <0> WorkflowStepResult value called with undefined stepResult, returning 'Success'\n[openstudio.measure.OSRunner] <1> Cannot find current Workflow Step\n[openstudio.WorkflowStepResult] <0> WorkflowStepResult value called with undefined stepResult, returning 'Success'\n[openstudio.measure.OSRunner] <1> Cannot find current Workflow Step\n[openstudio.model.YearDescription] <1> 'UseWeatherFile' is not yet a supported option for YearDescription\n[openstudio.WorkflowStepResult] <0> WorkflowStepResult value called with undefined stepResult, returning 'Success'\n",
        "step_errors": [],
        "step_files": [],
        "step_final_condition": "Gas lighting with 0 therms annual energy consumption has been assigned to outside.",
        "step_info": [
          "Assigning option 'CR05' for parameter 'Location Region'.",
          "Assigning option '0918490_United_States_IN_Marion_18097_724380_39.73_-86.26_NSRDB_2.0.1_2012_AMY.epw' for parameter 'Location EPW'.",
          "Assigning option 'East North Central' for parameter 'Location Census Division'.",
          "Assigning option '2000s' for parameter 'Vintage'.",
          "Assigning option 'Natural Gas' for parameter 'Heating Fuel'.",
          "Assigning option 'Medium' for parameter 'Usage Level'.",
          "Assigning option 'Crawl' for parameter 'Geometry Foundation Type'.",
          "Assigning option '1' for parameter 'Geometry Stories'.",
          "Assigning option 'None' for parameter 'Geometry Garage'.",
          "Assigning option '0-1499' for parameter 'Geometry House Size'.",
          "Assigning option 'Auto' for parameter 'Occupants'.",
          "Assigning option 'East' for parameter 'Orientation'.",
          "Assigning option '2 ft' for parameter 'Eaves'.",
          "Assigning option '20 ft^2' for parameter 'Door Area'.",
          "Assigning option 'F15 B15 L15 R15' for parameter 'Window Areas'.",
          "Assigning option 'None' for parameter 'Overhangs'.",
          "Assigning option 'Left/Right at 15ft' for parameter 'Neighbors'.",
          "Assigning option 'Ceiling R-19, Vented' for parameter 'Insulation Unfinished Attic'.",
          "Assigning option '3/4 in. OSB' for parameter 'Roof Sheathing'.",
          "Assigning option 'Asphalt Shingles, Medium' for parameter 'Roof Material'.",
          "Assigning option '1/2 in. Drywall' for parameter 'Thermal Mass Ceiling'.",
          "Assigning option 'None' for parameter 'Insulation Slab'.",
          "Assigning option 'Ceiling R-19, Vented' for parameter 'Insulation Crawlspace'.",
          "Assigning option 'None' for parameter 'Insulation Unfinished Basement'.",
          "Assigning option 'None' for parameter 'Insulation Finished Basement'.",
          "Assigning option 'None' for parameter 'Insulation Pier Beam'.",
          "Assigning option 'R-30' for parameter 'Insulation Interzonal Floor'.",
          "Assigning option '3/4 in. OSB' for parameter 'Floor Sheathing'.",
          "Assigning option '80% Carpet' for parameter 'Floor Covering'.",
          "Assigning option 'Wood Surface' for parameter 'Thermal Mass Floor'.",
          "Assigning option 'Wood Stud, R-19' for parameter 'Insulation Wall'.",
          "Assigning option '1/2 in. OSB' for parameter 'Wall Sheathing'.",
          "Assigning option 'Vinyl, Light' for parameter 'Exterior Finish'.",
          "Assigning option '1/2 in. Drywall' for parameter 'Thermal Mass Exterior Wall'.",
          "Assigning option '1/2 in. Drywall' for parameter 'Thermal Mass Partition Wall'.",
          "Assigning option 'Uninsulated' for parameter 'Uninsulated Surfaces'.",
          "Assigning option 'Clear, Double, Non-metal, Air' for parameter 'Windows'.",
          "Assigning option 'Fiberglass' for parameter 'Doors'.",
          "Assigning option 'Standard' for parameter 'Thermal Mass Furniture'.",
          "Assigning option 'Gas Standard' for parameter 'Water Heater'.",
          "Assigning option '100%' for parameter 'Hot Water Fixtures'.",
          "Assigning option 'Uninsulated, HomeRun, PEX' for parameter 'Hot Water Distribution'.",
          "Assigning option 'None' for parameter 'Solar Hot Water'.",
          "Assigning option 'No' for parameter 'HVAC System Is Combined'.",
          "Assigning option 'None' for parameter 'HVAC System Combined'.",
          "Assigning option 'None' for parameter 'HVAC System Heating Electricity'.",
          "Assigning option 'Gas Furnace, 80% AFUE' for parameter 'HVAC System Heating Natural Gas'.",
          "Assigning option 'None' for parameter 'HVAC System Heating Propane'.",
          "Assigning option 'None' for parameter 'HVAC System Heating Fuel Oil'.",
          "Assigning option 'None' for parameter 'HVAC System Heating Other Fuel'.",
          "Assigning option 'None' for parameter 'HVAC System Heating None'.",
          "Assigning option 'AC, SEER 13' for parameter 'HVAC System Cooling'.",
          "Assigning option 'Central' for parameter 'HVAC System Cooling Type'.",
          "Assigning option 'FIXME Location Average' for parameter 'Heating Setpoint'.",
          "Assigning option 'FIXME Location Average' for parameter 'Cooling Setpoint'.",
          "Assigning option 'National Average' for parameter 'Ceiling Fan'.",
          "Assigning option 'None' for parameter 'Dehumidifier'.",
          "Assigning option 'EF 10.5' for parameter 'Refrigerator'.",
          "Assigning option 'Electric, 100% Usage' for parameter 'Cooking Range'.",
          "Assigning option '290 Rated kWh, 100% Usage' for parameter 'Dishwasher'.",
          "Assigning option 'EnergyStar, 100% Usage' for parameter 'Clothes Washer'.",
          "Assigning option 'Electric, 100% Usage' for parameter 'Clothes Dryer'.",
          "Assigning option '100% Incandescent' for parameter 'Lighting'.",
          "Assigning option '100%' for parameter 'Plug Loads'.",
          "Assigning option 'EF 6.9, National Average' for parameter 'Misc Extra Refrigerator'.",
          "Assigning option 'EF 12, National Average' for parameter 'Misc Freezer'.",
          "Assigning option 'National Average' for parameter 'Misc Gas Fireplace'.",
          "Assigning option 'National Average' for parameter 'Misc Gas Grill'.",
          "Assigning option 'National Average' for parameter 'Misc Gas Lighting'.",
          "Assigning option 'National Average' for parameter 'Misc Hot Tub Spa'.",
          "Assigning option 'National Average' for parameter 'Misc Pool'.",
          "Assigning option 'National Average' for parameter 'Misc Well Pump'.",
          "Assigning option '30% Leakage, R-6' for parameter 'Ducts'.",
          "Assigning option '7 ACH50' for parameter 'Infiltration'.",
          "Assigning option 'Year-Round, 3 days/wk' for parameter 'Natural Ventilation'.",
          "Assigning option 'None' for parameter 'Mechanical Ventilation'.",
          "Assigning option 'None' for parameter 'PV'.",
          "Calling ResidentialLocation measure with arguments:\nweather_directory -> ../../../../weather \nweather_file_name -> 0918490_United_States_IN_Marion_18097_724380_39.73_-86.26_NSRDB_2.0.1_2012_AMY.epw \ndst_start_date -> April 7 \ndst_end_date -> October 26",
          "Found an existing weather file.",
          "Setting weather file.",
          "Setting site data.",
          "Setting Building America climate zone to Cold.",
          "Setting mains water temperature profile with an average temperature of 61.8 F.",
          "Set daylight saving time from 2009-Apr-07 to 2009-Oct-26.",
          "Calling ResidentialGeometrySingleFamilyDetached measure with arguments:\nfoundation_type -> crawlspace \nfoundation_height -> 4 \nnum_floors -> 1 \ngarage_width -> 0 \ngarage_depth -> 24 \ngarage_protrusion -> 0.5 \ngarage_pos -> Right \ntotal_ffa -> 1000 \nliving_height -> 8 \naspect_ratio -> 1.8 \nattic_type -> unfinished attic \nroof_type -> gable \nroof_pitch -> 6:12",
          "Set living space.",
          "Set unfinished attic space.",
          "Set crawl space.",
          "Calling ResidentialGeometryNumBedsAndBaths measure with arguments:\nnum_bedrooms -> 3 \nnum_bathrooms -> 1.5",
          "Calling ResidentialGeometryNumOccupants measure with arguments:\nnum_occ -> auto \nocc_gain -> 384.0 \nsens_frac -> 0.573 \nlat_frac -> 0.427 \nweekday_sch -> 1.00000, 1.00000, 1.00000, 1.00000, 1.00000, 1.00000, 1.00000, 0.88310, 0.40861, 0.24189, 0.24189, 0.24189, 0.24189, 0.24189, 0.24189, 0.24189, 0.29498, 0.55310, 0.89693, 0.89693, 0.89693, 1.00000, 1.00000, 1.00000 \nweekend_sch -> 1.00000, 1.00000, 1.00000, 1.00000, 1.00000, 1.00000, 1.00000, 0.88310, 0.40861, 0.24189, 0.24189, 0.24189, 0.24189, 0.24189, 0.24189, 0.24189, 0.29498, 0.55310, 0.89693, 0.89693, 0.89693, 1.00000, 1.00000, 1.00000 \nmonthly_sch -> 1.0, 1.0, 1.0, 1.0, 1.0, 1.0, 1.0, 1.0, 1.0, 1.0, 1.0, 1.0",
          "Calling ResidentialGeometryOrientation measure with arguments:\norientation -> 270",
          "The orientation of the building has changed.",
          "Calling ResidentialGeometryEaves measure with arguments:\nroof_structure -> truss, cantilever \neaves_depth -> 2",
          "Added residential eaves front 1",
          "Added residential eaves back 1",
          "Added residential eaves back 2",
          "Added residential eaves front",
          "Added residential eaves back",
          "Added residential eaves front 2",
          "Calling ResidentialGeometryDoorArea measure with arguments:\ndoor_area -> 20",
          "For unit 1 added 20.0 ft^2 door.",
          "Calling ResidentialGeometryWindowArea measure with arguments:\nfront_wwr -> 0.15 \nback_wwr -> 0.15 \nleft_wwr -> 0.15 \nright_wwr -> 0.15 \naspect_ratio -> 1.333 \nfront_area -> 0 \nback_area -> 0 \nleft_area -> 0 \nright_area -> 0",
          "Added 4 window(s), totaling 47.3 ft^2, to Surface 5.",
          "Added 5 window(s), totaling 50.9 ft^2, to Surface 3.",
          "Added 3 window(s), totaling 28.3 ft^2, to Surface 2.",
          "Added 3 window(s), totaling 28.3 ft^2, to Surface 4.",
          "Calling ResidentialGeometryOverhangs measure with arguments:\ndepth -> 0 \noffset -> 0 \nfront_facade -> false \nback_facade -> false \nleft_facade -> false \nright_facade -> false",
          "No overhangs were added or removed.",
          "Calling ResidentialGeometryNeighbors measure with arguments:\nleft_offset -> 15 \nright_offset -> 15 \nback_offset -> 0 \nfront_offset -> 0",
          "Created 'residential neighbors left' from 'Surface 3'",
          "Created 'residential neighbors left 1' from 'Surface 4'",
          "Created 'residential neighbors left 2' from 'Surface 5'",
          "Created 'residential neighbors left 3' from 'Surface 2'",
          "Created 'residential neighbors left 4' from 'Surface 19'",
          "Created 'residential neighbors left 5' from 'Surface 18'",
          "Created 'residential neighbors left 6' from 'Surface 9'",
          "Created 'residential neighbors left 7' from 'Surface 10'",
          "Created 'residential neighbors left 8' from 'Surface 11'",
          "Created 'residential neighbors left 9' from 'Surface 8'",
          "Created 'residential neighbors left 10' from 'residential eaves front'",
          "Created 'residential neighbors left 11' from 'residential eaves back 2'",
          "Created 'residential neighbors left 12' from 'residential eaves back'",
          "Created 'residential neighbors left 13' from 'residential eaves front 2'",
          "Created 'residential neighbors left 14' from 'residential eaves front 1'",
          "Created 'residential neighbors left 15' from 'residential eaves back 1'",
          "Created 'residential neighbors right' from 'Surface 3'",
          "Created 'residential neighbors right 1' from 'Surface 4'",
          "Created 'residential neighbors right 2' from 'Surface 5'",
          "Created 'residential neighbors right 3' from 'Surface 2'",
          "Created 'residential neighbors right 4' from 'Surface 19'",
          "Created 'residential neighbors right 5' from 'Surface 18'",
          "Created 'residential neighbors right 6' from 'Surface 9'",
          "Created 'residential neighbors right 7' from 'Surface 10'",
          "Created 'residential neighbors right 8' from 'Surface 11'",
          "Created 'residential neighbors right 9' from 'Surface 8'",
          "Created 'residential neighbors right 10' from 'residential eaves front'",
          "Created 'residential neighbors right 11' from 'residential eaves back 2'",
          "Created 'residential neighbors right 12' from 'residential eaves back'",
          "Created 'residential neighbors right 13' from 'residential eaves front 2'",
          "Created 'residential neighbors right 14' from 'residential eaves front 1'",
          "Created 'residential neighbors right 15' from 'residential eaves back 1'",
          "Calling ResidentialConstructionsUninsulatedSurfaces measure with no arguments.",
          "Material 'ExtStudAndAirWall' was created.",
          "Material 'ResExtWallSheathing' was created.",
          "Construction 'ExtUninsUnfinWall' was created with 2 materials (ResExtWallSheathing, ExtStudAndAirWall).",
          "Surface 'Surface 10' has been assigned construction 'ExtUninsUnfinWall'.",
          "Surface 'Surface 11' has been assigned construction 'ExtUninsUnfinWall'.",
          "Calling ResidentialConstructionsCeilingsRoofsUnfinishedAttic measure with arguments:\nceil_r -> 19 \nceil_grade -> I \nceil_ins_thick_in -> 7.41 \nceil_ff -> 0.07 \nceil_joist_height -> 3.5 \nroof_cavity_r -> 0 \nroof_cavity_grade -> I \nroof_cavity_ins_thick_in -> 0 \nroof_ff -> 0.07 \nroof_fram_thick_in -> 7.25",
          "Material 'UAAdditionalCeilingIns' was created.",
          "Material 'UATrussandIns' was created.",
          "Construction 'FinInsUnfinUAFloor' was created with 2 materials (UATrussandIns, UAAdditionalCeilingIns).",
          "Surface 'Surface 7' has been assigned construction 'FinInsUnfinUAFloor'.",
          "Construction 'RevFinInsUnfinUAFloor' was created with 2 materials (UAAdditionalCeilingIns, UATrussandIns).",
          "Surface 'Surface 6' has been assigned construction 'RevFinInsUnfinUAFloor'.",
          "Material 'UARoofIns' was created.",
          "Construction 'UnfinInsExtRoof' was created with 1 material (UARoofIns).",
          "Surface 'Surface 9' has been assigned construction 'UnfinInsExtRoof'.",
          "Surface 'Surface 8' has been assigned construction 'UnfinInsExtRoof'.",
          "Calling ResidentialConstructionsCeilingsRoofsSheathing measure with arguments:\nosb_thick_in -> 0.75 \nrigid_r -> 0 \nrigid_thick_in -> 0",
          "Material 'ResRoofSheathing' was created.",
          "Construction 'UnfinInsExtRoof 1' was created with 2 materials (ResRoofSheathing, UARoofIns).",
          "Surface 'Surface 9' has been assigned construction 'UnfinInsExtRoof 1'.",
          "Surface 'Surface 8' has been assigned construction 'UnfinInsExtRoof 1'.",
          "Removed construction 'UnfinInsExtRoof' because it was orphaned.",
          "Calling ResidentialConstructionsCeilingsRoofsRoofingMaterial measure with arguments:\nsolar_abs -> 0.85 \nemissivity -> 0.91 \nmaterial -> asphalt shingles \ncolor -> medium",
          "Material 'ResRoofMaterial' was created.",
          "Construction 'UnfinInsExtRoof 2' was created with 3 materials (ResRoofMaterial, ResRoofSheathing, UARoofIns).",
          "Surface 'Surface 9' has been assigned construction 'UnfinInsExtRoof 2'.",
          "Surface 'Surface 8' has been assigned construction 'UnfinInsExtRoof 2'.",
          "Removed construction 'UnfinInsExtRoof 1' because it was orphaned.",
          "Calling ResidentialConstructionsCeilingsRoofsThermalMass measure with arguments:\nthick_in1 -> 0.5 \nthick_in2 ->  \ncond1 -> 1.1112 \ncond2 ->  \ndens1 -> 50 \ndens2 ->  \nspecheat1 -> 0.2 \nspecheat2 -> ",
          "Material 'ResCeilingMass1' was created.",
          "Construction 'RevFinInsUnfinUAFloor 1' was created with 3 materials (ResCeilingMass1, UAAdditionalCeilingIns, UATrussandIns).",
          "Surface 'Surface 6' has been assigned construction 'RevFinInsUnfinUAFloor 1'.",
          "Construction 'FinInsUnfinUAFloor 1' was created with 3 materials (UATrussandIns, UAAdditionalCeilingIns, ResCeilingMass1).",
          "Surface 'Surface 7' has been assigned construction 'FinInsUnfinUAFloor 1'.",
          "Removed construction 'FinInsUnfinUAFloor' because it was orphaned.",
          "Removed construction 'RevFinInsUnfinUAFloor' because it was orphaned.",
          "Calling ResidentialConstructionsFoundationsFloorsCrawlspace measure with arguments:\nwall_rigid_r -> 0 \nwall_rigid_thick_in -> 0 \nceil_cavity_r -> 19 \nceil_cavity_grade -> I \nceil_ff -> 0.13 \nceil_joist_height -> 9.25 \nexposed_perim -> auto",
          "Material 'Concrete-8in' was created.",
          "Material 'Soil-12in' was created.",
          "Material 'CWall-FicR' was created.",
          "Construction 'GrndInsUnfinCSWall' was created with 3 materials (CWall-FicR, Soil-12in, Concrete-8in).",
          "Surface 'Surface 13' has been assigned construction 'GrndInsUnfinCSWall'.",
          "Surface 'Surface 14' has been assigned construction 'GrndInsUnfinCSWall'.",
          "Surface 'Surface 16' has been assigned construction 'GrndInsUnfinCSWall'.",
          "Surface 'Surface 15' has been assigned construction 'GrndInsUnfinCSWall'.",
          "Material 'CFloor-FicR' was created.",
          "Construction 'GrndUninsUnfinCSFloor' was created with 2 materials (CFloor-FicR, Soil-12in).",
          "Surface 'Surface 12' has been assigned construction 'GrndUninsUnfinCSFloor'.",
          "Material 'CrawlCeilingIns' was created.",
          "Construction 'UnfinCSInsFinFloor' was created with 1 material (CrawlCeilingIns).",
          "Surface 'Surface 17' has been assigned construction 'UnfinCSInsFinFloor'.",
          "Surface 'Surface 1' has been assigned construction 'UnfinCSInsFinFloor'.",
          "Calling ResidentialConstructionsFoundationsFloorsInterzonalFloors measure with arguments:\ncavity_r -> 30 \ninstall_grade -> I \nframing_factor -> 0.13",
          "Measure not applied because no applicable surfaces were found.",
          "Calling ResidentialConstructionsFoundationsFloorsCovering measure with arguments:\ncovering_frac -> 0.8 \ncovering_r -> 2.08",
          "Material 'ResFloorCovering' was created.",
          "Construction 'UnfinCSInsFinFloor 1' was created with 2 materials (ResFloorCovering, CrawlCeilingIns).",
          "Surface 'Surface 1' has been assigned construction 'UnfinCSInsFinFloor 1'.",
          "Construction 'RevUnfinCSInsFinFloor 1' was created with 2 materials (CrawlCeilingIns, ResFloorCovering).",
          "Surface 'Surface 17' has been assigned construction 'RevUnfinCSInsFinFloor 1'.",
          "Removed construction 'UnfinCSInsFinFloor' because it was orphaned.",
          "Calling ResidentialConstructionsFoundationsFloorsSheathing measure with arguments:\nosb_thick_in -> 0.75 \nrigid_r -> 0 \nrigid_thick_in -> 0",
          "Material 'ResFloorSheathing' was created.",
          "Construction 'UnfinCSInsFinFloor 2' was created with 3 materials (ResFloorSheathing, ResFloorCovering, CrawlCeilingIns).",
          "Surface 'Surface 1' has been assigned construction 'UnfinCSInsFinFloor 2'.",
          "Construction 'RevUnfinCSInsFinFloor 2' was created with 3 materials (CrawlCeilingIns, ResFloorCovering, ResFloorSheathing).",
          "Surface 'Surface 17' has been assigned construction 'RevUnfinCSInsFinFloor 2'.",
          "Removed construction 'RevUnfinCSInsFinFloor 1' because it was orphaned.",
          "Removed construction 'UnfinCSInsFinFloor 1' because it was orphaned.",
          "Calling ResidentialConstructionsFoundationsFloorsThermalMass measure with arguments:\nthick_in -> 0.625 \ncond -> 0.8004 \ndens -> 34.0 \nspecheat -> 0.29",
          "Material 'ResFloorMass' was created.",
          "Construction 'UnfinCSInsFinFloor 3' was created with 4 materials (ResFloorSheathing, ResFloorCovering, CrawlCeilingIns, ResFloorMass).",
          "Surface 'Surface 1' has been assigned construction 'UnfinCSInsFinFloor 3'.",
          "Construction 'RevUnfinCSInsFinFloor 3' was created with 4 materials (ResFloorMass, CrawlCeilingIns, ResFloorCovering, ResFloorSheathing).",
          "Surface 'Surface 17' has been assigned construction 'RevUnfinCSInsFinFloor 3'.",
          "Removed construction 'RevUnfinCSInsFinFloor 2' because it was orphaned.",
          "Removed construction 'UnfinCSInsFinFloor 2' because it was orphaned.",
          "Calling ResidentialConstructionsWallsExteriorWoodStud measure with arguments:\ncavity_r -> 17.3 \ninstall_grade -> I \ncavity_depth -> 5.5 \nins_fills_cavity -> true \nframing_factor -> 0.22",
          "Material 'StudAndCavity' was created.",
          "Construction 'ExtInsFinWall' was created with 1 material (StudAndCavity).",
          "Surface 'Surface 3' has been assigned construction 'ExtInsFinWall'.",
          "Surface 'Surface 4' has been assigned construction 'ExtInsFinWall'.",
          "Surface 'Surface 5' has been assigned construction 'ExtInsFinWall'.",
          "Surface 'Surface 2' has been assigned construction 'ExtInsFinWall'.",
          "Surface 'Surface 19' has been assigned construction 'ExtInsFinWall'.",
          "Surface 'Surface 18' has been assigned construction 'ExtInsFinWall'.",
          "Calling ResidentialConstructionsWallsInterzonal measure with arguments:\ncavity_r -> 17.3 \ninstall_grade -> I \ncavity_depth -> 5.5 \nins_fills_cavity -> true \nframing_factor -> 0.22",
          "Measure not applied because no applicable surfaces were found.",
          "Calling ResidentialConstructionsWallsSheathing measure with arguments:\nosb_thick_in -> 0.5 \nrigid_r -> 0 \nrigid_thick_in -> 0",
          "Construction 'ExtInsFinWall 1' was created with 2 materials (ResExtWallSheathing, StudAndCavity).",
          "Surface 'Surface 3' has been assigned construction 'ExtInsFinWall 1'.",
          "Surface 'Surface 4' has been assigned construction 'ExtInsFinWall 1'.",
          "Surface 'Surface 5' has been assigned construction 'ExtInsFinWall 1'.",
          "Surface 'Surface 2' has been assigned construction 'ExtInsFinWall 1'.",
          "Surface 'Surface 19' has been assigned construction 'ExtInsFinWall 1'.",
          "Surface 'Surface 18' has been assigned construction 'ExtInsFinWall 1'.",
          "Removed construction 'ExtInsFinWall' because it was orphaned.",
          "Calling ResidentialConstructionsWallsExteriorFinish measure with arguments:\nsolar_abs -> 0.3 \nconductivity -> 0.62 \ndensity -> 11.1 \nspecific_heat -> 0.25 \nthick_in -> 0.375 \nemissivity -> 0.9",
          "Material 'ResExtFinish' was created.",
          "Construction 'ExtInsFinWall 2' was created with 3 materials (ResExtFinish, ResExtWallSheathing, StudAndCavity).",
          "Surface 'Surface 3' has been assigned construction 'ExtInsFinWall 2'.",
          "Surface 'Surface 4' has been assigned construction 'ExtInsFinWall 2'.",
          "Surface 'Surface 5' has been assigned construction 'ExtInsFinWall 2'.",
          "Surface 'Surface 2' has been assigned construction 'ExtInsFinWall 2'.",
          "Surface 'Surface 19' has been assigned construction 'ExtInsFinWall 2'.",
          "Surface 'Surface 18' has been assigned construction 'ExtInsFinWall 2'.",
          "Construction 'ExtUninsUnfinWall 1' was created with 3 materials (ResExtFinish, ResExtWallSheathing, ExtStudAndAirWall).",
          "Surface 'Surface 10' has been assigned construction 'ExtUninsUnfinWall 1'.",
          "Surface 'Surface 11' has been assigned construction 'ExtUninsUnfinWall 1'.",
          "Removed construction 'ExtInsFinWall 1' because it was orphaned.",
          "Removed construction 'ExtUninsUnfinWall' because it was orphaned.",
          "Calling ResidentialConstructionsWallsExteriorThermalMass measure with arguments:\nthick_in1 -> 0.5 \nthick_in2 ->  \ncond1 -> 1.1112 \ncond2 ->  \ndens1 -> 50.0 \ndens2 ->  \nspecheat1 -> 0.2 \nspecheat2 -> ",
          "Material 'ResExtWallMass1' was created.",
          "Construction 'ExtInsFinWall 3' was created with 4 materials (ResExtFinish, ResExtWallSheathing, StudAndCavity, ResExtWallMass1).",
          "Surface 'Surface 3' has been assigned construction 'ExtInsFinWall 3'.",
          "Surface 'Surface 4' has been assigned construction 'ExtInsFinWall 3'.",
          "Surface 'Surface 5' has been assigned construction 'ExtInsFinWall 3'.",
          "Surface 'Surface 2' has been assigned construction 'ExtInsFinWall 3'.",
          "Surface 'Surface 19' has been assigned construction 'ExtInsFinWall 3'.",
          "Surface 'Surface 18' has been assigned construction 'ExtInsFinWall 3'.",
          "Removed construction 'ExtInsFinWall 2' because it was orphaned.",
          "Calling ResidentialConstructionsWallsPartitionThermalMass measure with arguments:\nfrac -> 1.0 \nthick_in1 -> 0.5 \nthick_in2 ->  \ncond1 -> 1.1112 \ncond2 ->  \ndens1 -> 50 \ndens2 ->  \nspecheat1 -> 0.2 \nspecheat2 -> ",
          "Added internal mass object 'living space Partition' to space 'living space'",
          "Material 'ResExtWallMassOtherSide1' was created.",
          "Material 'IntMassStudAndAirWall' was created.",
          "Construction 'FinUninsFinWall' was created with 3 materials (ResExtWallMassOtherSide1, IntMassStudAndAirWall, ResExtWallMass1).",
          "InternalMassDefinition 'living space Partition' has been assigned construction 'FinUninsFinWall'.",
          "Calling ResidentialConstructionsWindows measure with arguments:\nufactor -> 0.49 \nshgc -> 0.56 \nheating_shade_mult -> 0.7 \ncooling_shade_mult -> 0.7",
          "Material 'GlazingMaterial' was created.",
          "Construction 'WindowConstruction' was created with 1 material (GlazingMaterial).",
          "SubSurface 'Surface 5 - Window 1' has been assigned construction 'WindowConstruction'.",
          "SubSurface 'Surface 3 - Window 1' has been assigned construction 'WindowConstruction'.",
          "SubSurface 'Surface 2 - Window 1' has been assigned construction 'WindowConstruction'.",
          "SubSurface 'Surface 3 - Window 2' has been assigned construction 'WindowConstruction'.",
          "SubSurface 'Surface 4 - Window 1' has been assigned construction 'WindowConstruction'.",
          "SubSurface 'Surface 3 - Window 4' has been assigned construction 'WindowConstruction'.",
          "SubSurface 'Surface 5 - Window 4' has been assigned construction 'WindowConstruction'.",
          "SubSurface 'Surface 3 - Window 3' has been assigned construction 'WindowConstruction'.",
          "SubSurface 'Surface 5 - Window 2' has been assigned construction 'WindowConstruction'.",
          "SubSurface 'Surface 2 - Window 3' has been assigned construction 'WindowConstruction'.",
          "SubSurface 'Surface 2 - Window 2' has been assigned construction 'WindowConstruction'.",
          "SubSurface 'Surface 4 - Window 2' has been assigned construction 'WindowConstruction'.",
          "SubSurface 'Surface 4 - Window 3' has been assigned construction 'WindowConstruction'.",
          "SubSurface 'Surface 3 - Window 5' has been assigned construction 'WindowConstruction'.",
          "SubSurface 'Surface 5 - Window 3' has been assigned construction 'WindowConstruction'.",
          "Construction and interior shades added to 15 window(s).",
          "Calling ResidentialConstructionsDoors measure with arguments:\ndoor_ufactor -> 0.2",
          "Material 'DoorMaterial' was created.",
          "Construction 'LivingDoors' was created with 1 material (DoorMaterial).",
          "SubSurface 'unit 1 - Surface 5 - Door' has been assigned construction 'LivingDoors'.",
          "Calling ResidentialConstructionsFurnitureThermalMass measure with arguments:\narea_fraction -> 0.4 \nmass -> 8.0 \nsolar_abs -> 0.6 \nconductivity -> 0.8004 \ndensity -> 40.0 \nspecific_heat -> 0.29",
          "Assigned internal mass object 'residential furniture mass living space' to space 'living space'.",
          "Calling ResidentialHotWaterHeaterTankFuel measure with arguments:\nfuel_type -> gas \ntank_volume -> auto \nsetpoint_temp -> 125 \nlocation -> auto \ncapacity -> 40 \nenergy_factor -> 0.59 \nrecovery_efficiency -> 0.76 \noffcyc_power -> 0 \noncyc_power -> 0",
          "A new plant loop for DHW will be added to the model",
          "Calling ResidentialHotWaterFixtures measure with arguments:\nshower_mult -> 1.0 \nsink_mult -> 1.0 \nbath_mult -> 1.0 \nplant_loop -> auto \nspace -> auto",
          "Calling ResidentialHotWaterDistribution measure with arguments:\npipe_mat -> pex \ndist_layout -> home run \nspace -> interior \nrecirc_type -> none \ndist_ins -> 0",
          "Calling ResidentialHVACCentralAirConditionerSingleSpeed measure with arguments:\nseer -> 13.0 \neer -> 11.1 \nshr -> 0.73 \nfan_power_rated -> 0.365 \nfan_power_installed -> 0.5 \ncrankcase_capacity -> 0.0 \ncrankcase_max_temp -> 55 \neer_capacity_derate_1ton -> 1.0 \neer_capacity_derate_2ton -> 1.0 \neer_capacity_derate_3ton -> 1.0 \neer_capacity_derate_4ton -> 1.0 \neer_capacity_derate_5ton -> 1.0 \ncapacity -> autosize",
          "Added 'residential central ac supply fan' to 'residential central ac unitary system' of 'residential central ac central air system'",
          "Added 'residential central ac cooling coil' to 'residential central ac unitary system' of 'residential central ac central air system'",
          "Added 'residential central ac central air system' to 'living zone' of unit 1",
          "Calling ResidentialHVACFurnaceFuel measure with arguments:\nfuel_type -> gas \nafue -> 0.8 \ncapacity -> autosize \nfan_power_installed -> 0.5",
          "Removed 'residential central ac central air system' from living zone.",
          "Added 'residential furnace gas and central ac supply fan' to 'residential furnace gas and central ac unitary system' of 'residential furnace gas and central ac central air system'",
          "Added 'residential furnace gas heating coil' to 'residential furnace gas and central ac unitary system' of 'residential furnace gas and central ac central air system'",
          "Added 'residential central ac cooling coil' to 'residential furnace gas and central ac unitary system' of 'residential furnace gas and central ac central air system'",
          "Added 'residential furnace gas and central ac central air system' to 'living zone' of unit 1",
          "Calling ResidentialHVACHeatingSetpoints measure with arguments:\nhtg_wkdy -> 71 \nhtg_wked -> 71",
          "Found residential furnace gas in living zone.",
          "Added availability schedule to residential furnace gas heating coil.",
          "Created new thermostat living zone temperature setpoint for living zone.",
          "Set a dummy cooling setpoint schedule for living zone temperature setpoint.",
          "Set the heating setpoint schedule for living zone temperature setpoint.",
          "Calling ResidentialHVACCoolingSetpoints measure with arguments:\nclg_wkdy -> 76 \nclg_wked -> 76",
          "Found residential central ac in living zone.",
          "Added availability schedule to residential central ac cooling coil.",
          "Found existing thermostat living zone temperature setpoint for living zone.",
          "Set the cooling setpoint schedule for living zone temperature setpoint.",
          "Calling ResidentialHVACCeilingFan measure with arguments:\ncoverage -> NA \nspecified_num -> 1 \npower -> 45 \ncontrol -> typical \nuse_benchmark_energy -> true \ncooling_setpoint_offset -> 0 \nmult -> 1 \nweekday_sch -> 0.04, 0.037, 0.037, 0.036, 0.033, 0.036, 0.043, 0.047, 0.034, 0.023, 0.024, 0.025, 0.024, 0.028, 0.031, 0.032, 0.039, 0.053, 0.063, 0.067, 0.071, 0.069, 0.059, 0.05 \nweekend_sch -> 0.04, 0.037, 0.037, 0.036, 0.033, 0.036, 0.043, 0.047, 0.034, 0.023, 0.024, 0.025, 0.024, 0.028, 0.031, 0.032, 0.039, 0.053, 0.063, 0.067, 0.071, 0.069, 0.059, 0.05 \nmonthly_sch -> 1.248, 1.257, 0.993, 0.989, 0.993, 0.827, 0.821, 0.821, 0.827, 0.99, 0.987, 1.248",
          "Calling ResidentialApplianceRefrigerator measure with arguments:\nfridge_E -> 727.0 \nmult -> 1.0 \nweekday_sch -> 0.040, 0.039, 0.038, 0.037, 0.036, 0.036, 0.038, 0.040, 0.041, 0.041, 0.040, 0.040, 0.042, 0.042, 0.042, 0.041, 0.044, 0.048, 0.050, 0.048, 0.047, 0.046, 0.044, 0.041 \nweekend_sch -> 0.040, 0.039, 0.038, 0.037, 0.036, 0.036, 0.038, 0.040, 0.041, 0.041, 0.040, 0.040, 0.042, 0.042, 0.042, 0.041, 0.044, 0.048, 0.050, 0.048, 0.047, 0.046, 0.044, 0.041 \nmonthly_sch -> 0.837, 0.835, 1.084, 1.084, 1.084, 1.096, 1.096, 1.096, 1.096, 0.931, 0.925, 0.837 \nspace -> auto",
          "Calling ResidentialApplianceClothesWasher measure with arguments:\nimef -> 2.07 \nrated_annual_energy -> 123.0 \nannual_cost -> 9.0 \ntest_date -> 2007 \ndrum_volume -> 3.68 \ncold_cycle -> false \nthermostatic_control -> true \ninternal_heater -> false \nfill_sensor -> false \nmult_e -> 1.0 \nmult_hw -> 1.0 \nspace -> auto \nplant_loop -> auto",
          "Calling ResidentialApplianceClothesDryerElectric measure with arguments:\ncef -> 2.70 \nmult -> 1.0 \nweekday_sch -> 0.010, 0.006, 0.004, 0.002, 0.004, 0.006, 0.016, 0.032, 0.048, 0.068, 0.078, 0.081, 0.074, 0.067, 0.057, 0.061, 0.055, 0.054, 0.051, 0.051, 0.052, 0.054, 0.044, 0.024 \nweekend_sch -> 0.010, 0.006, 0.004, 0.002, 0.004, 0.006, 0.016, 0.032, 0.048, 0.068, 0.078, 0.081, 0.074, 0.067, 0.057, 0.061, 0.055, 0.054, 0.051, 0.051, 0.052, 0.054, 0.044, 0.024 \nmonthly_sch -> 1.0, 1.0, 1.0, 1.0, 1.0, 1.0, 1.0, 1.0, 1.0, 1.0, 1.0, 1.0 \nspace -> auto",
[...]
        "step_errors": [],
        "step_files": [],
        "step_info": [
          "Registering 69.14 for total_site_energy_mbtu.",
          "Registering 69.14 for net_site_energy_mbtu.",
          "Registering 8011.11 for total_site_electricity_kwh.",
          "Registering 8011.11 for net_site_electricity_kwh.",
          "Registering 0.0 for electricity_heating_kwh.",
          "Registering 1205.56 for electricity_cooling_kwh.",
          "Registering 1058.33 for electricity_interior_lighting_kwh.",
          "Registering 175.0 for electricity_exterior_lighting_kwh.",
          "Registering 4969.44 for electricity_interior_equipment_kwh.",
          "Registering 602.78 for electricity_fans_kwh.",
          "Registering 0.0 for electricity_pumps_kwh.",
          "Registering 0.0 for electricity_water_systems_kwh.",
          "Registering 0.0 for electricity_pv_kwh.",
          "Registering 418.08 for total_site_natural_gas_therm.",
          "Registering 253.64 for natural_gas_heating_therm.",
          "Registering 6.16 for natural_gas_interior_equipment_therm.",
          "Registering 158.29 for natural_gas_water_systems_therm.",
          "Registering 0.0 for total_site_other_fuel_mbtu.",
          "Registering 0.0 for other_fuel_heating_mbtu.",
          "Registering 0.0 for other_fuel_interior_equipment_mbtu.",
          "Registering 0.0 for other_fuel_water_systems_mbtu.",
          "Registering 0.0 for hours_heating_setpoint_not_met.",
          "Registering 0.67 for hours_cooling_setpoint_not_met.",
          "Registering 6275.38 for hvac_cooling_capacity_w.",
          "Registering 6558.99 for hvac_heating_capacity_w.",
          "Registering 800.0 for weight.",
          "Registering  for upgrade_name.",
          "Registering (blank) for upgrade_cost_usd."
        ],
        "step_result": "Success",
        "step_values": [
          {
            "name": "total_site_energy_mbtu",
            "value": 69.14325892685649
          },
          {
            "name": "net_site_energy_mbtu",
            "value": 69.14325892685649
          },
          {
            "name": "total_site_electricity_kwh",
            "value": 8011.111111111111
          },
          {
            "name": "net_site_electricity_kwh",
            "value": 8011.111111111111
          },
          {
            "name": "electricity_heating_kwh",
            "value": 0
          },
          {
            "name": "electricity_cooling_kwh",
            "value": 1205.5555555555554
          },
          {
            "name": "electricity_interior_lighting_kwh",
            "value": 1058.3333333333333
          },
          {
            "name": "electricity_exterior_lighting_kwh",
            "value": 175
          },
          {
            "name": "electricity_interior_equipment_kwh",
            "value": 4969.444444444444
          },
          {
            "name": "electricity_fans_kwh",
            "value": 602.7777777777777
          },
          {
            "name": "electricity_pumps_kwh",
            "value": 0
          },
          {
            "name": "electricity_water_systems_kwh",
            "value": 0
          },
          {
            "name": "electricity_pv_kwh",
            "value": 0
          },
          {
            "name": "total_site_natural_gas_therm",
            "value": 418.0821317702042
          },
          {
            "name": "natural_gas_heating_therm",
            "value": 253.63586139584368
          },
          {
            "name": "natural_gas_interior_equipment_therm",
            "value": 6.160811282036562
          },
          {
            "name": "natural_gas_water_systems_therm",
            "value": 158.28545909232398
          },
          {
            "name": "total_site_other_fuel_mbtu",
            "value": 0
          },
          {
            "name": "other_fuel_heating_mbtu",
            "value": 0
          },
          {
            "name": "other_fuel_interior_equipment_mbtu",
            "value": 0
          },
          {
            "name": "other_fuel_water_systems_mbtu",
            "value": 0
          },
          {
            "name": "hours_heating_setpoint_not_met",
            "value": 0
          },
          {
            "name": "hours_cooling_setpoint_not_met",
            "value": 0.67
          },
          {
            "name": "hvac_cooling_capacity_w",
            "value": 6275.37750770594
          },
          {
            "name": "hvac_heating_capacity_w",
            "value": 6558.98946920186
          },
          {
            "name": "weight",
            "value": 800
          },
          {
            "name": "upgrade_name",
            "value": ""
          },
          {
            "name": "upgrade_cost_usd",
            "value": ""
          }
        ],
        "step_warnings": []
      }
    },
    {
      "arguments": {
        "inc_output_variables": false,
        "reporting_frequency": "Hourly"
      },
      "description": "Exports all available hourly timeseries enduses to csv, and uses them for utility bill calculations.",
      "measure_dir_name": "TimeseriesCSVExport",
      "name": "timeseries_csv_export",
      "result": {
        "completed_at": "20170925T163940Z",
        "measure_class_name": "TimeseriesCSVExport",
        "measure_display_name": "Timeseries CSV Export",
        "measure_name": "timeseries_csv_export",
        "measure_taxonomy": "Reporting.QAQC",
        "measure_type": "ReportingMeasure",
        "measure_uid": "2a3442c1-944d-4e91-9e11-11e0cf368c64",
        "measure_version_id": "e24bea3e-936c-4552-8155-22a413950ee3",
        "measure_version_modified": "20170925T144524Z",
        "measure_xml_checksum": "15BF4E57",
        "started_at": "20170925T163808Z",
        "stderr": "",
        "stdout": "",
        "step_errors": [],
        "step_files": [],
        "step_final_condition": "CSV file saved to <a href='file:////mnt/openstudio/analysis_fe821d2c-df1e-4105-9ee6-6c7fef1463ae/data_point_a4ce89b9-82d1-4d5d-a741-63d7919c7ca9/run/enduse_timeseries.csv'>enduse_timeseries.csv</a>.",
        "step_info": [
          "Exporting Heating:Electricity",
          "Exporting Heating:Gas",
          "Exporting Heating:DistrictCooling",
          "Exporting Heating:DistrictHeating",
          "Exporting Heating:Water",
          "Exporting Heating:FuelOil#1",
          "Exporting Heating:Propane",
          "Exporting Cooling:Electricity",
          "Exporting Cooling:Gas",
          "Exporting Cooling:DistrictCooling",
          "Exporting Cooling:DistrictHeating",
          "Exporting Cooling:Water",
          "Exporting Cooling:FuelOil#1",
          "Exporting Cooling:Propane",
          "Exporting InteriorLights:Electricity",
          "Exporting InteriorLights:Gas",
          "Exporting InteriorLights:DistrictCooling",
          "Exporting InteriorLights:DistrictHeating",
          "Exporting InteriorLights:Water",
          "Exporting InteriorLights:FuelOil#1",
          "Exporting InteriorLights:Propane",
          "Exporting ExteriorLights:Electricity",
          "Exporting ExteriorLights:Gas",
          "Exporting ExteriorLights:DistrictCooling",
          "Exporting ExteriorLights:DistrictHeating",
          "Exporting ExteriorLights:Water",
          "Exporting ExteriorLights:FuelOil#1",
          "Exporting ExteriorLights:Propane",
          "Exporting InteriorEquipment:Electricity",
          "Exporting InteriorEquipment:Gas",
          "Exporting InteriorEquipment:DistrictCooling",
          "Exporting InteriorEquipment:DistrictHeating",
          "Exporting InteriorEquipment:Water",
          "Exporting InteriorEquipment:FuelOil#1",
          "Exporting InteriorEquipment:Propane",
          "Exporting ExteriorEquipment:Electricity",
          "Exporting ExteriorEquipment:Gas",
          "Exporting ExteriorEquipment:DistrictCooling",
          "Exporting ExteriorEquipment:DistrictHeating",
          "Exporting ExteriorEquipment:Water",
          "Exporting ExteriorEquipment:FuelOil#1",
          "Exporting ExteriorEquipment:Propane",
          "Exporting Fans:Electricity",
          "Exporting Fans:Gas",
          "Exporting Fans:DistrictCooling",
          "Exporting Fans:DistrictHeating",
          "Exporting Fans:Water",
          "Exporting Fans:FuelOil#1",
          "Exporting Fans:Propane",
          "Exporting Pumps:Electricity",
          "Exporting Pumps:Gas",
          "Exporting Pumps:DistrictCooling",
          "Exporting Pumps:DistrictHeating",
          "Exporting Pumps:Water",
          "Exporting Pumps:FuelOil#1",
          "Exporting Pumps:Propane",
          "Exporting HeatRejection:Electricity",
          "Exporting HeatRejection:Gas",
          "Exporting HeatRejection:DistrictCooling",
          "Exporting HeatRejection:DistrictHeating",
          "Exporting HeatRejection:Water",
          "Exporting HeatRejection:FuelOil#1",
          "Exporting HeatRejection:Propane",
          "Exporting Humidifier:Electricity",
          "Exporting Humidifier:Gas",
          "Exporting Humidifier:DistrictCooling",
          "Exporting Humidifier:DistrictHeating",
          "Exporting Humidifier:Water",
          "Exporting Humidifier:FuelOil#1",
          "Exporting Humidifier:Propane",
          "Exporting HeatRecovery:Electricity",
          "Exporting HeatRecovery:Gas",
          "Exporting HeatRecovery:DistrictCooling",
          "Exporting HeatRecovery:DistrictHeating",
          "Exporting HeatRecovery:Water",
          "Exporting HeatRecovery:FuelOil#1",
          "Exporting HeatRecovery:Propane",
          "Exporting WaterSystems:Electricity",
          "Exporting WaterSystems:Gas",
          "Exporting WaterSystems:DistrictCooling",
          "Exporting WaterSystems:DistrictHeating",
          "Exporting WaterSystems:Water",
          "Exporting WaterSystems:FuelOil#1",
          "Exporting WaterSystems:Propane",
          "Exporting Refrigeration:Electricity",
          "Exporting Refrigeration:Gas",
          "Exporting Refrigeration:DistrictCooling",
          "Exporting Refrigeration:DistrictHeating",
          "Exporting Refrigeration:Water",
          "Exporting Refrigeration:FuelOil#1",
          "Exporting Refrigeration:Propane",
          "Exporting Generators:Electricity",
          "Exporting Generators:Gas",
          "Exporting Generators:DistrictCooling",
          "Exporting Generators:DistrictHeating",
          "Exporting Generators:Water",
          "Exporting Generators:FuelOil#1",
          "Exporting Generators:Propane",
          "Exporting Electricity:Facility",
          "Exporting Gas:Facility",
          "Exporting DistrictCooling:Facility",
          "Exporting DistrictHeating:Facility",
          "Exporting Water:Facility",
          "Exporting FuelOil#1:Facility",
          "Exporting Propane:Facility"
        ],
        "step_result": "Success",
        "step_values": [
          {
            "name": "reporting_frequency",
            "value": "Hourly"
          },
          {
            "name": "inc_output_variables",
            "value": false
          }
        ],
        "step_warnings": [
          "No data found for Hourly Cooling:DistrictCooling .",
          "No data found for Hourly ExteriorEquipment:DistrictCooling .",
          "No data found for Hourly ExteriorLights:DistrictCooling .",
          "No data found for Hourly Fans:DistrictCooling .",
          "No data found for Hourly Generators:DistrictCooling .",
          "No data found for Hourly HeatRecovery:DistrictCooling .",
          "No data found for Hourly HeatRejection:DistrictCooling .",
          "No data found for Hourly Heating:DistrictCooling .",
          "No data found for Hourly Humidifier:DistrictCooling .",
          "No data found for Hourly InteriorEquipment:DistrictCooling .",
          "No data found for Hourly InteriorLights:DistrictCooling .",
          "No data found for Hourly Pumps:DistrictCooling .",
          "No data found for Hourly Refrigeration:DistrictCooling .",
          "No data found for Hourly WaterSystems:DistrictCooling .",
          "No data found for Hourly DistrictCooling:Facility .",
          "No data found for Hourly Cooling:DistrictHeating .",
          "No data found for Hourly ExteriorEquipment:DistrictHeating .",
          "No data found for Hourly ExteriorLights:DistrictHeating .",
          "No data found for Hourly Fans:DistrictHeating .",
          "No data found for Hourly Generators:DistrictHeating .",
          "No data found for Hourly HeatRecovery:DistrictHeating .",
          "No data found for Hourly HeatRejection:DistrictHeating .",
          "No data found for Hourly Heating:DistrictHeating .",
          "No data found for Hourly Humidifier:DistrictHeating .",
          "No data found for Hourly InteriorEquipment:DistrictHeating .",
          "No data found for Hourly InteriorLights:DistrictHeating .",
          "No data found for Hourly Pumps:DistrictHeating .",
          "No data found for Hourly Refrigeration:DistrictHeating .",
          "No data found for Hourly WaterSystems:DistrictHeating .",
          "No data found for Hourly DistrictHeating:Facility .",
          "No data found for Hourly ExteriorEquipment:Electricity .",
          "No data found for Hourly Generators:Electricity .",
          "No data found for Hourly HeatRecovery:Electricity .",
          "No data found for Hourly HeatRejection:Electricity .",
          "No data found for Hourly Humidifier:Electricity .",
          "No data found for Hourly Refrigeration:Electricity .",
          "No data found for Hourly Cooling:FuelOil#1 .",
          "No data found for Hourly ExteriorEquipment:FuelOil#1 .",
          "No data found for Hourly ExteriorLights:FuelOil#1 .",
          "No data found for Hourly Fans:FuelOil#1 .",
          "No data found for Hourly Generators:FuelOil#1 .",
          "No data found for Hourly HeatRecovery:FuelOil#1 .",
          "No data found for Hourly HeatRejection:FuelOil#1 .",
          "No data found for Hourly Heating:FuelOil#1 .",
          "No data found for Hourly Humidifier:FuelOil#1 .",
          "No data found for Hourly InteriorEquipment:FuelOil#1 .",
          "No data found for Hourly InteriorLights:FuelOil#1 .",
          "No data found for Hourly Pumps:FuelOil#1 .",
          "No data found for Hourly Refrigeration:FuelOil#1 .",
          "No data found for Hourly WaterSystems:FuelOil#1 .",
          "No data found for Hourly FuelOil#1:Facility .",
          "No data found for Hourly Cooling:Gas .",
          "No data found for Hourly ExteriorEquipment:Gas .",
          "No data found for Hourly ExteriorLights:Gas .",
          "No data found for Hourly Fans:Gas .",
          "No data found for Hourly Generators:Gas .",
          "No data found for Hourly HeatRecovery:Gas .",
          "No data found for Hourly HeatRejection:Gas .",
          "No data found for Hourly Humidifier:Gas .",
          "No data found for Hourly InteriorLights:Gas .",
          "No data found for Hourly Pumps:Gas .",
          "No data found for Hourly Refrigeration:Gas .",
          "No data found for Hourly Cooling:Propane .",
          "No data found for Hourly ExteriorEquipment:Propane .",
          "No data found for Hourly ExteriorLights:Propane .",
          "No data found for Hourly Fans:Propane .",
          "No data found for Hourly Generators:Propane .",
          "No data found for Hourly HeatRecovery:Propane .",
          "No data found for Hourly HeatRejection:Propane .",
          "No data found for Hourly Heating:Propane .",
          "No data found for Hourly Humidifier:Propane .",
          "No data found for Hourly InteriorEquipment:Propane .",
          "No data found for Hourly InteriorLights:Propane .",
          "No data found for Hourly Pumps:Propane .",
          "No data found for Hourly Refrigeration:Propane .",
          "No data found for Hourly WaterSystems:Propane .",
          "No data found for Hourly Propane:Facility .",
          "No data found for Hourly Cooling:Water .",
          "No data found for Hourly ExteriorEquipment:Water .",
          "No data found for Hourly ExteriorLights:Water .",
          "No data found for Hourly Fans:Water .",
          "No data found for Hourly Generators:Water .",
          "No data found for Hourly HeatRecovery:Water .",
          "No data found for Hourly HeatRejection:Water .",
          "No data found for Hourly Heating:Water .",
          "No data found for Hourly Humidifier:Water .",
          "No data found for Hourly InteriorEquipment:Water .",
          "No data found for Hourly InteriorLights:Water .",
          "No data found for Hourly Pumps:Water .",
          "No data found for Hourly Refrigeration:Water ."
        ]
      }
    },
    {
      "arguments": {},
      "description": "Removes a significant portion of the saved results from each run, helping to alleviate memory problems.",
      "measure_dir_name": "ServerDirectoryCleanup",
      "name": "server_directory_cleanup",
      "result": {
        "completed_at": "20170925T163940Z",
        "measure_class_name": "ServerDirectoryCleanup",
        "measure_display_name": "Server Directory Cleanup",
        "measure_name": "server_directory_cleanup",
        "measure_taxonomy": "Calibration",
        "measure_type": "ReportingMeasure",
        "measure_uid": "ec7d04ad-0b7b-495b-825a-e1b6d28d1d3f",
        "measure_version_id": "06036ce2-8e98-45e1-9043-78e2aa60a26a",
        "measure_version_modified": "20170511T212356Z",
        "measure_xml_checksum": "5F1EDF75",
        "started_at": "20170925T163940Z",
        "stderr": "",
        "stdout": "[OpenStudio.Measure] <0> OSArgumentVector is deprecated, use OpenStudio::Measure::OSArgumentVector instead.\n",
        "step_errors": [],
        "step_files": [],
        "step_final_condition": "The following files were in the local run directory following the execution of this measure: eplusout.rdd, eplustbl.htm, in.epw, ., eplusout.err, eplusout.mtr, in.idf, 001_BuildingCharacteristicsReport, 004_ServerDirectoryCleanup, 001_SimulationOutputReport, 001_ServerDirectoryCleanup, stdout-energyplus, 002_SimulationOutputReport, 003_TimeseriesCSVExport, enduse_timeseries.csv, eplusout.end, stdout-expandobject, sqlite.err, eplusout.mtd, run.log, started.job, 000_BuildExistingModel, measures.osw, measure_attributes.json, 001_TimeseriesCSVExport, ...",
        "step_info": [
          "Deleted ./../eplusout.sql from the run directory.",
          "Deleted ./../eplusout.audit from the run directory.",
          "Deleted ./../in.osm from the run directory.",
          "Deleted ./../eplusout.bnd from the run directory.",
          "Deleted ./../eplusout.eio from the run directory.",
          "Deleted ./../eplusout.shd from the run directory.",
          "Deleted ./../eplusout.mdd from the run directory.",
          "Deleted ./../eplusout.eso from the run directory.",
          "Deleted ./../pre-preprocess.idf from the run directory."
        ],
        "step_initial_condition": "The following files were in the local run directory prior to the execution of this measure: eplusout.rdd, eplustbl.htm, in.epw, ., eplusout.sql, eplusout.eio, eplusout.err, eplusout.mtr, in.idf, 001_BuildingCharacteristicsReport, 004_ServerDirectoryCleanup, 001_SimulationOutputReport, 001_ServerDirectoryCleanup, eplusout.mdd, eplusout.shd, stdout-energyplus, 002_SimulationOutputReport, pre-preprocess.idf, 003_TimeseriesCSVExport, eplusout.eso, enduse_timeseries.csv, eplusout.end, stdout-expandobject, eplusout.bnd, eplusout.audit, in.osm, sqlite.err, eplusout.mtd, run.log, started.job, 000_BuildExistingModel, measures.osw, measure_attributes.json, 001_TimeseriesCSVExport, ...",
        "step_result": "Success",
        "step_values": [],
        "step_warnings": []
      }
    }
  ],
  "updated_at": "20170925T163943Z",
  "weather_file": "Placeholder.epw"
}