{
   "completed_at" : "20200130T175921Z",
   "completed_status" : "Success",
   "current_step" : 30,
   "eplusout_err" : "Program Version,EnergyPlus, Version 9.2.0-921312fa1d, YMD=2020.01.30 10:59,\n   ************* Beginning Zone Sizing Calculations\n   ** Warning ** ProcessScheduleInput: Schedule:Constant=\"ALWAYS ON CONTINUOUS\", Blank Schedule Type Limits Name input -- will not be validated.\n   ** Warning ** CheckUsedConstructions: There are 2 nominally unused constructions in input.\n   **   ~~~   ** For explicit details on each unused construction, use Output:Diagnostics,DisplayExtraWarnings;\n   ************* Beginning System Sizing Calculations\n   ** Warning ** GetDXCoils: Coil:Cooling:DX:SingleSpeed=\"RES ROOM AC COOLING COIL\" curve values\n   **   ~~~   ** ... Energy Input Ratio Function of Flow Fraction Curve Name = ROOMAC-EIR-FFF output is not equal to 1.0 (+ or - 10%) at rated conditions.\n   **   ~~~   ** ... Curve output at rated conditions = 1.154\n   ************* Beginning Plant Sizing Calculations\n   ** Warning ** Check input. Pump nominal power or motor efficiency is set to 0, for pump=PUMP VARIABLE SPEED 1\n   ** Warning ** Output:Meter: invalid Key Name=\"DISTRICTCOOLING:FACILITY\" - not found.\n   ** Warning ** Output:Meter: invalid Key Name=\"DISTRICTHEATING:FACILITY\" - not found.\n   ** Warning ** Output:Meter:MeterFileOnly requested for \"Electricity:Facility\" (TimeStep), already on \"Output:Meter\". Will report to both eplusout.eso and eplusout.mtr\n   ************* Testing Individual Branch Integrity\n   ************* All Branches passed integrity testing\n   ************* Testing Individual Supply Air Path Integrity\n   ************* All Supply Air Paths passed integrity testing\n   ************* Testing Individual Return Air Path Integrity\n   ************* All Return Air Paths passed integrity testing\n   ************* No node connection errors were found.\n   ************* Beginning Simulation\n   ** Warning ** SimHVAC: Maximum iterations (20) exceeded for all HVAC loops, at RUN PERIOD 1, 01/03 10:50 - 11:00\n   **   ~~~   ** The solution for one or more of the Air Loop HVAC systems did not appear to converge\n   **   ~~~   ** ...use Output:Diagnostics,DisplayExtraWarnings; to show more details on each max iteration exceeded.\n   ** Warning ** SimHVAC: Maximum iterations (20) exceeded for all HVAC loops, at RUN PERIOD 1, 01/04 00:10 - 00:15\n   **   ~~~   ** The solution for one or more of the Air Loop HVAC systems did not appear to converge\n   ** Warning ** SimHVAC: Maximum iterations (20) exceeded for all HVAC loops, at RUN PERIOD 1, 01/04 16:00 - 16:10\n   **   ~~~   ** The solution for one or more of the Air Loop HVAC systems did not appear to converge\n   ** Warning ** SimHVAC: Maximum iterations (20) exceeded for all HVAC loops, at RUN PERIOD 1, 01/04 21:00 - 21:05\n   **   ~~~   ** The solution for one or more of the Air Loop HVAC systems did not appear to converge\n   ** Warning ** SimHVAC: Maximum iterations (20) exceeded for all HVAC loops, at RUN PERIOD 1, 01/05 14:05 - 14:10\n   **   ~~~   ** The solution for one or more of the Air Loop HVAC systems did not appear to converge\n   ** Warning ** CalcDoe2DXCoil: Coil:Cooling:DX:SingleSpeed \"RES ROOM AC COOLING COIL\" - Air-cooled condenser inlet dry-bulb temperature below 0 C. Outdoor dry-bulb temperature = -0.40\n   **   ~~~   **  ... Occurrence info = RUN PERIOD 1, 01/06 11:04 - 11:05\n   **   ~~~   ** ... Operation at low ambient temperatures may require special performance curves.\n   ** Warning ** SimHVAC: Maximum iterations (20) exceeded for all HVAC loops, at RUN PERIOD 1, 01/07 13:35 - 13:40\n   **   ~~~   ** The solution for one or more of the Air Loop HVAC systems did not appear to converge\n   ** Warning ** SimHVAC: Maximum iterations (20) exceeded for all HVAC loops, at RUN PERIOD 1, 01/08 17:00 - 17:10\n   **   ~~~   ** The solution for one or more of the Air Loop HVAC systems did not appear to converge\n   ** Warning ** SimHVAC: Maximum iterations (20) exceeded for all HVAC loops, at RUN PERIOD 1, 01/08 17:00 - 17:05\n   **   ~~~   ** The solution for one or more of the Air Loop HVAC systems did not appear to converge\n   ** Warning ** SimHVAC: Maximum iterations (20) exceeded for all HVAC loops, at RUN PERIOD 1, 01/11 03:50 - 04:00\n   **   ~~~   ** The solution for one or more of the Air Loop HVAC systems did not appear to converge\n   ** Warning ** SimHVAC: Maximum iterations (20) exceeded for all HVAC loops, at RUN PERIOD 1, 01/11 08:10 - 08:20\n   **   ~~~   ** The solution for one or more of the Air Loop HVAC systems did not appear to converge\n   ** Warning ** SimHVAC: Maximum iterations (20) exceeded for all HVAC loops, at RUN PERIOD 1, 01/11 12:30 - 12:40\n   **   ~~~   ** The solution for one or more of the Air Loop HVAC systems did not appear to converge\n   ** Warning ** SimHVAC: Maximum iterations (20) exceeded for all HVAC loops, at RUN PERIOD 1, 01/12 18:30 - 18:40\n   **   ~~~   ** The solution for one or more of the Air Loop HVAC systems did not appear to converge\n   ** Warning ** SimHVAC: Maximum iterations (20) exceeded for all HVAC loops, at RUN PERIOD 1, 01/12 19:50 - 20:00\n   **   ~~~   ** The solution for one or more of the Air Loop HVAC systems did not appear to converge\n   ** Warning ** SimHVAC: Maximum iterations (20) exceeded for all HVAC loops, at RUN PERIOD 1, 01/19 17:00 - 17:10\n   **   ~~~   ** The solution for one or more of the Air Loop HVAC systems did not appear to converge\n   ** Warning ** The resource referenced by LifeCycleCost:UsePriceEscalation= \"U.S. AVG  COMMERCIAL-ELECTRICITY\" has no energy cost. \n   **   ~~~   ** ... It is likely that the wrong resource is used. The resource should match the meter used in Utility:Tariff.\n   ** Warning ** The resource referenced by LifeCycleCost:UsePriceEscalation= \"U.S. AVG  COMMERCIAL-DISTILLATE OIL\" has no energy cost. \n   **   ~~~   ** ... It is likely that the wrong resource is used. The resource should match the meter used in Utility:Tariff.\n   ** Warning ** The resource referenced by LifeCycleCost:UsePriceEscalation= \"U.S. AVG  COMMERCIAL-RESIDUAL OIL\" has no energy cost. \n   **   ~~~   ** ... It is likely that the wrong resource is used. The resource should match the meter used in Utility:Tariff.\n   ** Warning ** The resource referenced by LifeCycleCost:UsePriceEscalation= \"U.S. AVG  COMMERCIAL-NATURAL GAS\" has no energy cost. \n   **   ~~~   ** ... It is likely that the wrong resource is used. The resource should match the meter used in Utility:Tariff.\n   ** Warning ** The resource referenced by LifeCycleCost:UsePriceEscalation= \"U.S. AVG  COMMERCIAL-COAL\" has no energy cost. \n   **   ~~~   ** ... It is likely that the wrong resource is used. The resource should match the meter used in Utility:Tariff.\n   ************* Simulation Error Summary *************\n   ************* There are 3 unused schedules in input.\n   ************* There are 43 unused week schedules in input.\n   ************* There are 27 unused day schedules in input.\n   ************* Use Output:Diagnostics,DisplayUnusedSchedules; to see them.\n   *************\n   ************* ===== Recurring Error Summary =====\n   ************* The following recurring error messages occurred.\n   *************\n   *************  ** Warning ** CalcDoe2DXCoil: Coil:Cooling:DX:SingleSpeed=\"RES ROOM AC COOLING COIL\" - Low condenser dry-bulb temperature error continues...\n   *************  **   ~~~   **   This error occurred 7 total times;\n   *************  **   ~~~   **   during Warmup 0 times;\n   *************  **   ~~~   **   during Sizing 0 times.\n   *************  **   ~~~   **   Max=-0.4 [C]  Min=-0.85 [C]\n   *************\n   *************  ** Warning ** SimHVAC: Exceeding Maximum iterations for all HVAC loops, during RUN PERIOD 1 continues\n   *************  **   ~~~   **   This error occurred 149 total times;\n   *************  **   ~~~   **   during Warmup 0 times;\n   *************  **   ~~~   **   during Sizing 0 times.\n   *************\n   *************\n   ************* ===== Final Error Summary =====\n   ************* The following error categories occurred.  Consider correcting or noting.\n   ************* Nominally Unused Constructions\n   ************* ..The nominally unused constructions warning is provided to alert you to potential conditions that can cause\n   ************* ..extra time during simulation. Each construction is calculated by the algorithm indicated in the HeatBalanceAlgorithm\n   ************* ..object. You may remove the constructions indicated (when you use the DisplayExtraWarnings option).\n   *************\n   ************* EnergyPlus Warmup Error Summary. During Warmup: 0 Warning; 0 Severe Errors.\n   ************* EnergyPlus Sizing Error Summary. During Sizing: 3 Warning; 0 Severe Errors.\n   ************* EnergyPlus Completed Successfully-- 182 Warning; 0 Severe Errors; Elapsed Time=00hr 00min 19.67sec\n",
   "file_paths" : [
      "C:/Users/aspeake/Documents/OpenStudio-BuildStock/workflows/singleunit_osw/generated_files",
      "./files",
      "./weather",
      "../../files",
      "../../weather",
      "./"
   ],
   "hash" : "F392BB3A",
   "measure_paths" : [ "../../measures", "../../resources/measures" ],
   "started_at" : "20200130T175844Z",
   "steps" : [
      {
         "arguments" : {
            "dst_end_date" : "October 26",
            "dst_start_date" : "April 7",
            "weather_directory" : "../HPXMLtoOpenStudio/weather",
            "weather_file_name" : "USA_WA_Seattle-Tacoma.Intl.AP.727930_TMY3.epw"
         },
         "measure_dir_name" : "ResidentialLocation",
         "result" : {
            "completed_at" : "20200130T175845Z",
            "measure_class_name" : "SetResidentialEPWFile",
            "measure_display_name" : "Set Residential Location",
            "measure_name" : "set_residential_epw_file",
            "measure_taxonomy" : "Whole Building.Space Types",
            "measure_type" : "ModelMeasure",
            "measure_uid" : "16ac2c0c-6177-4bf2-91a5-1b6e8de4e85b",
            "measure_version_id" : "f89321a2-46dc-44ba-a139-698350046035",
            "measure_version_modified" : "20190701T173021Z",
            "measure_xml_checksum" : "D8922A73",
            "started_at" : "20200130T175844Z",
            "stderr" : "",
            "stdout" : "",
            "step_errors" : [],
            "step_files" : [],
            "step_final_condition" : "The weather file path is 'C:/Users/aspeake/Documents/OpenStudio-BuildStock/resources/measures/HPXMLtoOpenStudio/weather/USA_WA_Seattle-Tacoma.Intl.AP.727930_TMY3.epw'.",
            "step_info" : [
               "Setting weather file.",
               "Setting site data.",
               "Setting Building America climate zone to Marine.",
               "Setting mains water temperature profile.",
               "Set daylight saving time from 2009-Apr-07 to 2009-Oct-26."
            ],
            "step_result" : "Success",
            "step_values" : [
               {
                  "name" : "weather_directory",
                  "value" : "../HPXMLtoOpenStudio/weather"
               },
               {
                  "name" : "weather_file_name",
                  "value" : "USA_WA_Seattle-Tacoma.Intl.AP.727930_TMY3.epw"
               },
               {
                  "name" : "dst_start_date",
                  "value" : "April 7"
               },
               {
                  "name" : "dst_end_date",
                  "value" : "October 26"
               }
            ],
            "step_warnings" : []
         }
      },
      {
         "arguments" : {
            "balcony_depth" : "0",
            "corridor_position" : "Double-Loaded Interior",
            "corridor_width" : "10",
            "eaves_depth" : "2",
            "foundation_height" : "8",
            "foundation_type" : "unfinished basement",
            "horz_location" : "Left",
            "inset_depth" : "0",
            "inset_position" : "Right",
            "inset_width" : "0",
            "level" : "Top",
            "minimal_collapsed" : "false",
            "neighbor_back_offset" : "0",
            "neighbor_front_offset" : "0",
            "neighbor_left_offset" : "12",
            "neighbor_right_offset" : "12",
            "num_bathrooms" : "1.5",
            "num_bedrooms" : "3",
            "num_floors" : "2",
            "num_occupants" : "auto",
            "num_units" : "20",
            "occupants_monthly_sch" : "1.0, 1.0, 1.0, 1.0, 1.0, 1.0, 1.0, 1.0, 1.0, 1.0, 1.0, 1.0",
            "occupants_weekday_sch" : "1.00, 1.00, 1.00, 1.00, 1.00, 1.00, 1.00, 0.88, 0.41, 0.24, 0.24, 0.24, 0.24, 0.24, 0.24, 0.24, 0.29, 0.55, 0.90, 0.90, 0.90, 1.00, 1.00, 1.00",
            "occupants_weekend_sch" : "1.00, 1.00, 1.00, 1.00, 1.00, 1.00, 1.00, 0.88, 0.41, 0.24, 0.24, 0.24, 0.24, 0.24, 0.24, 0.24, 0.29, 0.55, 0.90, 0.90, 0.90, 1.00, 1.00, 1.00",
            "orientation" : "270",
            "unit_aspect_ratio" : "1.8",
            "unit_ffa" : "500",
            "wall_height" : "8"
         },
         "measure_dir_name" : "ResidentialGeometryCreateMultifamily",
         "result" : {
            "completed_at" : "20200130T175846Z",
            "measure_class_name" : "CreateResidentialMultifamilyGeometry",
            "measure_display_name" : "CreateResidentialMultifamilyGeometry",
            "measure_name" : "create_residential_multifamily_geometry",
            "measure_taxonomy" : "Envelope.Form",
            "measure_type" : "ModelMeasure",
            "measure_uid" : "9bc07973-98a4-46fc-b643-e280628817c5",
            "measure_version_id" : "2aaa97fb-a303-4a14-b9c6-b57a8e0d2c36",
            "measure_version_modified" : "20190708T210918Z",
            "measure_xml_checksum" : "2AF3A68E",
            "started_at" : "20200130T175846Z",
            "stderr" : "",
            "stdout" : "[openstudio.model.YearDescription] <1> 'UseWeatherFile' is not yet a supported option for YearDescription\n",
            "step_errors" : [],
            "step_files" : [],
            "step_final_condition" : "The building finished with 2 spaces.",
            "step_info" : [
               "The building has been assigned 3 bedroom(s) and 1.5 bathroom(s) across 1 unit(s).",
               "unit 1 has been assigned 3.39 occupant(s) for space 'living space'.",
               "The building has been assigned 3.39 occupant(s) across 1 unit(s).",
               "Added 6 res eaves.",
               "Added 2 res neighbors shading surfaces.",
               "The building's initial orientation was 0.0 azimuth.",
               "The building's final orientation was 270.0 azimuth."
            ],
            "step_initial_condition" : "The building started with 0 spaces.",
            "step_result" : "Success",
            "step_values" : [
               {
                  "name" : "unit_ffa",
                  "value" : 500
               },
               {
                  "name" : "wall_height",
                  "value" : 8
               },
               {
                  "name" : "num_floors",
                  "value" : 2
               },
               {
                  "name" : "num_units",
                  "value" : 20
               },
               {
                  "name" : "unit_aspect_ratio",
                  "value" : 1.8
               },
               {
                  "name" : "corridor_position",
                  "value" : "Double-Loaded Interior"
               },
               {
                  "name" : "corridor_width",
                  "value" : 10
               },
               {
                  "name" : "inset_width",
                  "value" : 0
               },
               {
                  "name" : "inset_depth",
                  "value" : 0
               },
               {
                  "name" : "inset_position",
                  "value" : "Right"
               },
               {
                  "name" : "balcony_depth",
                  "value" : 0
               },
               {
                  "name" : "foundation_type",
                  "value" : "unfinished basement"
               },
               {
                  "name" : "foundation_height",
                  "value" : 8
               },
               {
                  "name" : "eaves_depth",
                  "value" : 2
               },
               {
                  "name" : "num_bedrooms",
                  "value" : "3"
               },
               {
                  "name" : "num_bathrooms",
                  "value" : "1.5"
               },
               {
                  "name" : "num_occupants",
                  "value" : "auto"
               },
               {
                  "name" : "occupants_weekday_sch",
                  "value" : "1.00, 1.00, 1.00, 1.00, 1.00, 1.00, 1.00, 0.88, 0.41, 0.24, 0.24, 0.24, 0.24, 0.24, 0.24, 0.24, 0.29, 0.55, 0.90, 0.90, 0.90, 1.00, 1.00, 1.00"
               },
               {
                  "name" : "occupants_weekend_sch",
                  "value" : "1.00, 1.00, 1.00, 1.00, 1.00, 1.00, 1.00, 0.88, 0.41, 0.24, 0.24, 0.24, 0.24, 0.24, 0.24, 0.24, 0.29, 0.55, 0.90, 0.90, 0.90, 1.00, 1.00, 1.00"
               },
               {
                  "name" : "occupants_monthly_sch",
                  "value" : "1.0, 1.0, 1.0, 1.0, 1.0, 1.0, 1.0, 1.0, 1.0, 1.0, 1.0, 1.0"
               },
               {
                  "name" : "neighbor_left_offset",
                  "value" : 12
               },
               {
                  "name" : "neighbor_right_offset",
                  "value" : 12
               },
               {
                  "name" : "neighbor_back_offset",
                  "value" : 0
               },
               {
                  "name" : "neighbor_front_offset",
                  "value" : 0
               },
               {
                  "name" : "orientation",
                  "value" : 270
               },
               {
                  "name" : "level",
                  "value" : "Top"
               },
               {
                  "name" : "horz_location",
                  "value" : "Left"
               },
               {
                  "name" : "minimal_collapsed",
                  "value" : false
               }
            ],
            "step_warnings" : [ "Unit is not on the bottom floor, setting foundation height to 0." ]
         }
      },
      {
         "arguments" : {
            "door_area" : "20"
         },
         "measure_dir_name" : "ResidentialGeometryDoorArea",
         "result" : {
            "completed_at" : "20200130T175846Z",
            "measure_class_name" : "CreateResidentialDoorArea",
            "measure_display_name" : "Set Residential Door Area",
            "measure_name" : "create_residential_door_area",
            "measure_taxonomy" : "Envelope.Fenestration",
            "measure_type" : "ModelMeasure",
            "measure_uid" : "901a04ee-99d4-42b3-91e1-b5b97970f441",
            "measure_version_id" : "7128d456-5773-4c86-930c-a409ed3b9ea9",
            "measure_version_modified" : "20190701T173018Z",
            "measure_xml_checksum" : "9C8A26EB",
            "started_at" : "20200130T175846Z",
            "stderr" : "",
            "stdout" : "",
            "step_errors" : [],
            "step_files" : [],
            "step_final_condition" : "The building has been assigned 20.0 ft^2 total door area.",
            "step_info" : [ "For unit 1 added 20.0 ft^2 door." ],
            "step_result" : "Success",
            "step_values" : [
               {
                  "name" : "door_area",
                  "value" : 20
               }
            ],
            "step_warnings" : []
         }
      },
      {
         "arguments" : {
            "back_skylight_area" : "0",
            "back_window_area" : "0",
            "back_wwr" : "0.15",
            "front_skylight_area" : "0",
            "front_window_area" : "0",
            "front_wwr" : "0.15",
            "left_skylight_area" : "0",
            "left_window_area" : "0",
            "left_wwr" : "0.15",
            "overhang_back_facade" : "false",
            "overhang_depth" : "0",
            "overhang_front_facade" : "false",
            "overhang_left_facade" : "false",
            "overhang_offset" : "0",
            "overhang_right_facade" : "false",
            "right_skylight_area" : "0",
            "right_window_area" : "0",
            "right_wwr" : "0.15",
            "window_aspect_ratio" : "1.333"
         },
         "measure_dir_name" : "ResidentialGeometryWindowSkylightArea",
         "result" : {
            "completed_at" : "20200130T175846Z",
            "measure_class_name" : "SetResidentialWindowSkylightArea",
            "measure_display_name" : "Set Residential Window/Skylight Area",
            "measure_name" : "set_residential_window_skylight_area",
            "measure_taxonomy" : "Envelope.Fenestration",
            "measure_type" : "ModelMeasure",
            "measure_uid" : "d05f5b32-1ad6-4c3d-964a-0dbd49a7fde8",
            "measure_version_id" : "d45b34bc-df3c-4ebc-81e8-a15133972cc7",
            "measure_version_modified" : "20190701T173018Z",
            "measure_xml_checksum" : "9014E219",
            "started_at" : "20200130T175846Z",
            "stderr" : "",
            "stdout" : "",
            "step_errors" : [],
            "step_files" : [],
            "step_final_condition" : "The building has been assigned 56.0 ft^2 total window area, and 0.0 ft^2 total skylight area.",
            "step_info" : [
               "Added 2 window(s), totaling 20.0 ft^2, to Surface 5.",
               "Added 3 window(s), totaling 36.0 ft^2, to Surface 2.",
               "No res overhangs to be added."
            ],
            "step_result" : "Success",
            "step_values" : [
               {
                  "name" : "front_wwr",
                  "value" : 0.14999999999999999
               },
               {
                  "name" : "back_wwr",
                  "value" : 0.14999999999999999
               },
               {
                  "name" : "left_wwr",
                  "value" : 0.14999999999999999
               },
               {
                  "name" : "right_wwr",
                  "value" : 0.14999999999999999
               },
               {
                  "name" : "front_window_area",
                  "value" : 0
               },
               {
                  "name" : "back_window_area",
                  "value" : 0
               },
               {
                  "name" : "left_window_area",
                  "value" : 0
               },
               {
                  "name" : "right_window_area",
                  "value" : 0
               },
               {
                  "name" : "window_aspect_ratio",
                  "value" : 1.333
               },
               {
                  "name" : "overhang_depth",
                  "value" : 0
               },
               {
                  "name" : "overhang_offset",
                  "value" : 0
               },
               {
                  "name" : "overhang_front_facade",
                  "value" : false
               },
               {
                  "name" : "overhang_back_facade",
                  "value" : false
               },
               {
                  "name" : "overhang_left_facade",
                  "value" : false
               },
               {
                  "name" : "overhang_right_facade",
                  "value" : false
               },
               {
                  "name" : "front_skylight_area",
                  "value" : 0
               },
               {
                  "name" : "back_skylight_area",
                  "value" : 0
               },
               {
                  "name" : "left_skylight_area",
                  "value" : 0
               },
               {
                  "name" : "right_skylight_area",
                  "value" : 0
               }
            ],
            "step_warnings" : []
         }
      },
      {
         "arguments" : {
            "ceiling_drywall_thick_in" : "0.5",
            "ceiling_framing_factor" : "0.07",
            "ceiling_ins_thick_in" : "11.23",
            "ceiling_install_grade" : "1",
            "ceiling_joist_height_in" : "3.5",
            "ceiling_r" : "30",
            "has_radiant_barrier" : "false",
            "roof_cavity_ins_thick_in" : "0",
            "roof_cavity_r" : "0",
            "roof_framing_factor" : "0.07",
            "roof_framing_thick_in" : "7.25",
            "roof_install_grade" : "1",
            "roof_osb_thick_in" : "0.75",
            "roof_rigid_r" : "0",
            "roofing_material" : "Asphalt Shingles, Medium"
         },
         "measure_dir_name" : "ResidentialConstructionsUnfinishedAttic",
         "result" : {
            "completed_at" : "20200130T175846Z",
            "measure_class_name" : "ProcessConstructionsUnfinishedAttic",
            "measure_display_name" : "Set Residential Unfinished Attic Constructions",
            "measure_name" : "process_constructions_unfinished_attic",
            "measure_taxonomy" : "Envelope.Opaque",
            "measure_type" : "ModelMeasure",
            "measure_uid" : "235ba3ce-dd83-4287-aa0e-435dc1cbf1a7",
            "measure_version_id" : "8412a1a0-7251-42a2-832d-739109948bdf",
            "measure_version_modified" : "20190701T173017Z",
            "measure_xml_checksum" : "1E963D9C",
            "started_at" : "20200130T175846Z",
            "stderr" : "",
            "stdout" : "",
            "step_errors" : [],
            "step_files" : [],
            "step_info" : [
               "Material 'Asphalt Shingles, Medium' was created.",
               "Material 'RoofSheathing' was created.",
               "Material 'RoofStudAndAirRoof' was created.",
               "Construction 'RoofUnfinUninsExt' was created with 3 materials (Asphalt Shingles, Medium | RoofSheathing | RoofStudAndAirRoof).",
               "Surface 'Surface 12' has been assigned construction 'RoofUnfinUninsExt'."
            ],
            "step_result" : "Success",
            "step_values" : [
               {
                  "name" : "ceiling_r",
                  "value" : 30
               },
               {
                  "name" : "ceiling_install_grade",
                  "value" : "1"
               },
               {
                  "name" : "ceiling_ins_thick_in",
                  "value" : 11.23
               },
               {
                  "name" : "ceiling_framing_factor",
                  "value" : 0.070000000000000007
               },
               {
                  "name" : "ceiling_joist_height_in",
                  "value" : 3.5
               },
               {
                  "name" : "ceiling_drywall_thick_in",
                  "value" : 0.5
               },
               {
                  "name" : "roof_cavity_r",
                  "value" : 0
               },
               {
                  "name" : "roof_install_grade",
                  "value" : "1"
               },
               {
                  "name" : "roof_cavity_ins_thick_in",
                  "value" : 0
               },
               {
                  "name" : "roof_framing_factor",
                  "value" : 0.070000000000000007
               },
               {
                  "name" : "roof_framing_thick_in",
                  "value" : 7.25
               },
               {
                  "name" : "roof_osb_thick_in",
                  "value" : 0.75
               },
               {
                  "name" : "roof_rigid_r",
                  "value" : 0
               },
               {
                  "name" : "roofing_material",
                  "value" : "Asphalt Shingles, Medium"
               },
               {
                  "name" : "has_radiant_barrier",
                  "value" : false
               }
            ],
            "step_warnings" : []
         }
      },
      {
         "arguments" : {
            "cavity_depth" : "9.25",
            "cavity_r" : "0",
            "drywall_thick_in" : "0.5",
            "filled_cavity" : "false",
            "framing_factor" : "0.07",
            "install_grade" : "1",
            "osb_thick_in" : "0.75",
            "rigid_r" : "0.0",
            "roofing_material" : "Asphalt Shingles, Medium"
         },
         "measure_dir_name" : "ResidentialConstructionsFinishedRoof",
         "result" : {
            "completed_at" : "20200130T175846Z",
            "measure_class_name" : "ProcessConstructionsFinishedRoof",
            "measure_display_name" : "Set Residential Finished Roof Construction",
            "measure_name" : "process_constructions_finished_roof",
            "measure_taxonomy" : "Envelope.Opaque",
            "measure_type" : "ModelMeasure",
            "measure_uid" : "6349eb9b-6e7e-4ba9-b518-76d2f9f73c79",
            "measure_version_id" : "419ed68e-98f0-4200-99c5-e6277268288d",
            "measure_version_modified" : "20190701T173016Z",
            "measure_xml_checksum" : "1E963D9C",
            "started_at" : "20200130T175846Z",
            "stderr" : "",
            "stdout" : "",
            "step_errors" : [],
            "step_files" : [],
            "step_info" : [
               "Material 'RoofIns' was created.",
               "Material 'Drywall 0.5 in.' was created.",
               "Construction 'RoofFinInsExt' was created with 4 materials (Asphalt Shingles, Medium | RoofSheathing | RoofIns | Drywall 0.5 in.).",
               "Surface 'Surface 6' has been assigned construction 'RoofFinInsExt'.",
               "Material 'RoofStudAndAirRoof 1' was created.",
               "Construction 'RoofUnfinUninsExt 1' was created with 3 materials (Asphalt Shingles, Medium | RoofSheathing | RoofStudAndAirRoof 1).",
               "Surface 'Surface 12' has been assigned construction 'RoofUnfinUninsExt 1'.",
               "Removed construction 'RoofUnfinUninsExt' because it was orphaned.",
               "Removed material 'RoofStudAndAirRoof' because it was orphaned."
            ],
            "step_result" : "Success",
            "step_values" : [
               {
                  "name" : "cavity_r",
                  "value" : 0
               },
               {
                  "name" : "install_grade",
                  "value" : "1"
               },
               {
                  "name" : "cavity_depth",
                  "value" : 9.25
               },
               {
                  "name" : "filled_cavity",
                  "value" : false
               },
               {
                  "name" : "framing_factor",
                  "value" : 0.070000000000000007
               },
               {
                  "name" : "drywall_thick_in",
                  "value" : 0.5
               },
               {
                  "name" : "osb_thick_in",
                  "value" : 0.75
               },
               {
                  "name" : "rigid_r",
                  "value" : 0
               },
               {
                  "name" : "roofing_material",
                  "value" : "Asphalt Shingles, Medium"
               }
            ],
            "step_warnings" : []
         }
      },
      {
         "arguments" : {
            "cavity_depth_in" : "3.5",
            "cavity_filled" : "true",
            "cavity_r" : "11",
            "drywall_thick_in" : "0.5",
            "exterior_finish" : "Vinyl, Light",
            "framing_factor" : "0.25",
            "install_grade" : "1",
            "osb_thick_in" : "0.5",
            "rigid_r" : "0.0"
         },
         "measure_dir_name" : "ResidentialConstructionsWallsWoodStud",
         "result" : {
            "completed_at" : "20200130T175846Z",
            "measure_class_name" : "ProcessConstructionsWallsWoodStud",
            "measure_display_name" : "Set Residential Walls - Wood Stud Construction",
            "measure_name" : "process_constructions_walls_wood_stud",
            "measure_taxonomy" : "Envelope.Opaque",
            "measure_type" : "ModelMeasure",
            "measure_uid" : "76193c5c-d1a6-4a57-864a-c8a32e67adcb",
            "measure_version_id" : "8c4c2f94-d284-4745-b94d-471663fbbb82",
            "measure_version_modified" : "20190701T173017Z",
            "measure_xml_checksum" : "1E963D9C",
            "started_at" : "20200130T175846Z",
            "stderr" : "",
            "stdout" : "",
            "step_errors" : [],
            "step_files" : [],
            "step_info" : [
               "Material 'Vinyl, Light' was created.",
               "Material 'WallSheathing' was created.",
               "Material 'WallStudAndCavity' was created.",
               "Construction 'WallExtInsFin' was created with 4 materials (Vinyl, Light | WallSheathing | WallStudAndCavity | Drywall 0.5 in.).",
               "Surface 'Surface 5' has been assigned construction 'WallExtInsFin'.",
               "Surface 'Surface 2' has been assigned construction 'WallExtInsFin'.",
               "Material 'WallStudAndCavity 1' was created.",
               "Construction 'WallExtUninsUnfin' was created with 3 materials (Vinyl, Light | WallSheathing | WallStudAndCavity 1).",
               "Surface 'Surface 10' has been assigned construction 'WallExtUninsUnfin'.",
               "Surface 'Surface 8' has been assigned construction 'WallExtUninsUnfin'.",
               "Surface 'Surface 9' has been assigned construction 'WallExtUninsUnfin'.",
               "Material 'WallStudAndCavity 2' was created.",
               "Construction 'WallIntFinUninsFin' was created with 3 materials (Vinyl, Light | WallStudAndCavity 2 | Drywall 0.5 in.).",
               "Surface 'Surface 3' has been assigned construction 'WallIntFinUninsFin'.",
               "Construction 'WallIntFinUninsFin Reversed' was created with 3 materials (Drywall 0.5 in. | WallStudAndCavity 2 | Vinyl, Light).",
               "Surface 'Surface 3' has been assigned construction 'WallIntFinUninsFin Reversed'.",
               "Surface 'Surface 4' has been assigned construction 'WallIntFinUninsFin'.",
               "Surface 'Surface 4' has been assigned construction 'WallIntFinUninsFin Reversed'.",
               "Material 'WallStudAndCavity 3' was created.",
               "Construction 'WallIntUnfinUninsUnfin' was created with 2 materials (Vinyl, Light | WallStudAndCavity 3).",
               "Surface 'Surface 11' has been assigned construction 'WallIntUnfinUninsUnfin'.",
               "Construction 'WallIntUnfinUninsUnfin Reversed' was created with 2 materials (WallStudAndCavity 3 | Vinyl, Light).",
               "Surface 'Surface 11' has been assigned construction 'WallIntUnfinUninsUnfin Reversed'.",
               "Material 'res furniture material living space' was created.",
               "Construction 'res furniture construction living space' was created with 1 material (res furniture material living space).",
               "InternalMassDefinition 'res furniture mass living space' has been assigned construction 'res furniture construction living space'.",
               "Assigned internal mass object 'res furniture mass living space' to space 'living space'.",
               "Removed construction 'WallIntFinUninsFin' because it was orphaned.",
               "Removed construction 'WallIntUnfinUninsUnfin' because it was orphaned."
            ],
            "step_result" : "Success",
            "step_values" : [
               {
                  "name" : "cavity_r",
                  "value" : 11
               },
               {
                  "name" : "install_grade",
                  "value" : "1"
               },
               {
                  "name" : "cavity_depth_in",
                  "value" : 3.5
               },
               {
                  "name" : "cavity_filled",
                  "value" : true
               },
               {
                  "name" : "framing_factor",
                  "value" : 0.25
               },
               {
                  "name" : "drywall_thick_in",
                  "value" : 0.5
               },
               {
                  "name" : "osb_thick_in",
                  "value" : 0.5
               },
               {
                  "name" : "rigid_r",
                  "value" : 0
               },
               {
                  "name" : "exterior_finish",
                  "value" : "Vinyl, Light"
               }
            ],
            "step_warnings" : []
         }
      },
      {
         "arguments" : {
            "ceiling_cavity_r" : "19",
            "ceiling_framing_factor" : "0.13",
            "ceiling_install_grade" : "1",
            "ceiling_joist_height_in" : "9.25",
            "slab_whole_r" : "0",
            "wall_cavity_depth_in" : "0",
            "wall_cavity_r" : "0",
            "wall_drywall_thick_in" : "0.5",
            "wall_filled_cavity" : "true",
            "wall_framing_factor" : "0",
            "wall_ins_height" : "0",
            "wall_install_grade" : "1",
            "wall_rigid_r" : "0"
         },
         "measure_dir_name" : "ResidentialConstructionsUnfinishedBasement",
         "result" : {
            "completed_at" : "20200130T175847Z",
            "measure_class_name" : "ProcessConstructionsUnfinishedBasement",
            "measure_display_name" : "Set Residential Unfinished Basement Constructions",
            "measure_name" : "process_constructions_unfinished_basement",
            "measure_taxonomy" : "Envelope.Opaque",
            "measure_type" : "ModelMeasure",
            "measure_uid" : "ebc21070-2d4b-4a2a-bd15-f18bf3e77b49",
            "measure_version_id" : "4cf07e54-e416-4161-bb58-757e7030b2b1",
            "measure_version_modified" : "20190701T173017Z",
            "measure_xml_checksum" : "1E963D9C",
            "started_at" : "20200130T175847Z",
            "stderr" : "",
            "stdout" : "",
            "step_errors" : [],
            "step_files" : [],
            "step_info" : [],
            "step_result" : "Success",
            "step_values" : [
               {
                  "name" : "wall_ins_height",
                  "value" : 0
               },
               {
                  "name" : "wall_cavity_r",
                  "value" : 0
               },
               {
                  "name" : "wall_install_grade",
                  "value" : "1"
               },
               {
                  "name" : "wall_cavity_depth_in",
                  "value" : 0
               },
               {
                  "name" : "wall_filled_cavity",
                  "value" : true
               },
               {
                  "name" : "wall_framing_factor",
                  "value" : 0
               },
               {
                  "name" : "wall_rigid_r",
                  "value" : 0
               },
               {
                  "name" : "wall_drywall_thick_in",
                  "value" : 0.5
               },
               {
                  "name" : "ceiling_cavity_r",
                  "value" : 19
               },
               {
                  "name" : "ceiling_install_grade",
                  "value" : "1"
               },
               {
                  "name" : "ceiling_framing_factor",
                  "value" : 0.13
               },
               {
                  "name" : "ceiling_joist_height_in",
                  "value" : 9.25
               },
               {
                  "name" : "slab_whole_r",
                  "value" : 0
               }
            ],
            "step_warnings" : []
         }
      },
      {
         "arguments" : {
            "cavity_r" : "0",
            "framing_factor" : "0.13",
            "install_grade" : "1",
            "joist_height_in" : "5.5"
         },
         "measure_dir_name" : "ResidentialConstructionsFloors",
         "result" : {
            "completed_at" : "20200130T175847Z",
            "measure_class_name" : "ProcessConstructionsFloors",
            "measure_display_name" : "Set Residential Floor Construction",
            "measure_name" : "process_constructions_floors",
            "measure_taxonomy" : "Envelope.Opaque",
            "measure_type" : "ModelMeasure",
            "measure_uid" : "65e577ab-327e-4afa-af30-0f6b4e6b1ebf",
            "measure_version_id" : "54db01d7-8cb4-4d3c-bcff-f911ef246735",
            "measure_version_modified" : "20190701T173017Z",
            "measure_xml_checksum" : "1E963D9C",
            "started_at" : "20200130T175847Z",
            "stderr" : "",
            "stdout" : "",
            "step_errors" : [],
            "step_files" : [],
            "step_info" : [
               "Material 'FloorFinStudAndAirFloor' was created.",
               "Material 'Wood Floor' was created.",
               "Material 'Floor Covering' was created.",
               "Construction 'FloorFinUninsFin' was created with 5 materials (Drywall 0.5 in. | FloorFinStudAndAirFloor | RoofSheathing | Wood Floor | Floor Covering).",
               "Surface 'Surface 1' has been assigned construction 'FloorFinUninsFin'.",
               "Material 'FloorFinStudAndAirFloor 1' was created.",
               "Construction 'FloorUnfinUninsUnfin' was created with 2 materials (FloorFinStudAndAirFloor 1 | RoofSheathing).",
               "Surface 'Surface 7' has been assigned construction 'FloorUnfinUninsUnfin'."
            ],
            "step_result" : "Success",
            "step_values" : [
               {
                  "name" : "cavity_r",
                  "value" : 0
               },
               {
                  "name" : "install_grade",
                  "value" : "1"
               },
               {
                  "name" : "framing_factor",
                  "value" : 0.13
               },
               {
                  "name" : "joist_height_in",
                  "value" : 5.5
               }
            ],
            "step_warnings" : []
         }
      },
      {
         "arguments" : {
            "skylight_cool_shade_mult" : "0.7",
            "skylight_heat_shade_mult" : "0.7",
            "skylight_shgc" : "0.3",
            "skylight_ufactor" : "0.37",
            "window_cool_shade_mult" : "0.7",
            "window_heat_shade_mult" : "0.7",
            "window_shgc" : "0.56",
            "window_ufactor" : "0.49"
         },
         "measure_dir_name" : "ResidentialConstructionsWindowsSkylights",
         "result" : {
            "completed_at" : "20200130T175847Z",
            "measure_class_name" : "ProcessConstructionsWindowsSkylights",
            "measure_display_name" : "Set Residential Window/Skylight Construction",
            "measure_name" : "process_constructions_windows_skylights",
            "measure_taxonomy" : "Envelope.Fenestration",
            "measure_type" : "ModelMeasure",
            "measure_uid" : "648dc42f-f079-4d97-913e-6dc3e19560b1",
            "measure_version_id" : "486a60e7-1b14-4891-bf2f-2361aa7bec0c",
            "measure_version_modified" : "20190701T173018Z",
            "measure_xml_checksum" : "6FAFA9DE",
            "started_at" : "20200130T175847Z",
            "stderr" : "",
            "stdout" : "[openstudio.model.YearDescription] <1> 'UseWeatherFile' is not yet a supported option for YearDescription\n",
            "step_errors" : [],
            "step_files" : [],
            "step_final_condition" : "All windows and skylights have been assigned constructions.",
            "step_info" : [
               "Material 'WindowMaterial' was created.",
               "Construction 'WindowConstruction' was created with 1 material (WindowMaterial).",
               "SubSurface 'Surface 2 - Window 2' has been assigned construction 'WindowConstruction'.",
               "SubSurface 'Surface 5 - Window 1' has been assigned construction 'WindowConstruction'.",
               "SubSurface 'Surface 5 - Window 2' has been assigned construction 'WindowConstruction'.",
               "SubSurface 'Surface 2 - Window 1' has been assigned construction 'WindowConstruction'.",
               "SubSurface 'Surface 2 - Window 3' has been assigned construction 'WindowConstruction'.",
               "Construction and interior shades added to 5 window(s)."
            ],
            "step_result" : "Success",
            "step_values" : [
               {
                  "name" : "window_ufactor",
                  "value" : 0.48999999999999999
               },
               {
                  "name" : "window_shgc",
                  "value" : 0.56000000000000005
               },
               {
                  "name" : "window_heat_shade_mult",
                  "value" : 0.69999999999999996
               },
               {
                  "name" : "window_cool_shade_mult",
                  "value" : 0.69999999999999996
               },
               {
                  "name" : "skylight_ufactor",
                  "value" : 0.37
               },
               {
                  "name" : "skylight_shgc",
                  "value" : 0.29999999999999999
               },
               {
                  "name" : "skylight_heat_shade_mult",
                  "value" : 0.69999999999999996
               },
               {
                  "name" : "skylight_cool_shade_mult",
                  "value" : 0.69999999999999996
               }
            ],
            "step_warnings" : []
         }
      },
      {
         "arguments" : {
            "ufactor" : "0.2"
         },
         "measure_dir_name" : "ResidentialConstructionsDoors",
         "result" : {
            "completed_at" : "20200130T175847Z",
            "measure_class_name" : "ProcessConstructionsDoors",
            "measure_display_name" : "Set Residential Door Construction",
            "measure_name" : "process_constructions_doors",
            "measure_taxonomy" : "Envelope.Fenestration",
            "measure_type" : "ModelMeasure",
            "measure_uid" : "b78f10fa-b38d-4de2-86e9-344a78e68847",
            "measure_version_id" : "647705a9-6666-4f9f-ba74-af84a86c18ba",
            "measure_version_modified" : "20190701T173016Z",
            "measure_xml_checksum" : "6FAFA9DE",
            "started_at" : "20200130T175847Z",
            "stderr" : "",
            "stdout" : "",
            "step_errors" : [],
            "step_files" : [],
            "step_info" : [
               "Material 'DoorMaterial' was created.",
               "Construction 'UninsDoor' was created with 1 material (DoorMaterial).",
               "SubSurface 'unit 1 - Surface 11 - Door' has been assigned construction 'UninsDoor'."
            ],
            "step_result" : "Success",
            "step_values" : [
               {
                  "name" : "ufactor",
                  "value" : 0.20000000000000001
               }
            ],
            "step_warnings" : []
         }
      },
      {
         "arguments" : {
            "capacity" : "4.5",
            "energy_factor" : "0.92",
            "fuel_type" : "electric",
            "location" : "auto",
            "offcyc_power" : "0",
            "oncyc_power" : "0",
            "recovery_efficiency" : "0.98",
            "setpoint_temp" : "125",
            "tank_volume" : "auto"
         },
         "measure_dir_name" : "ResidentialHotWaterHeaterTank",
         "result" : {
            "completed_at" : "20200130T175848Z",
            "measure_class_name" : "ResidentialHotWaterHeaterTank",
            "measure_display_name" : "Set Residential Tank Water Heater",
            "measure_name" : "residential_hot_water_heater_tank",
            "measure_taxonomy" : "Service Water Heating.Water Heating",
            "measure_type" : "ModelMeasure",
            "measure_uid" : "0f2214ac-12ca-4350-9942-8d1fb1277608",
            "measure_version_id" : "53059d79-5aa9-4639-8ca5-4a452b78b78b",
            "measure_version_modified" : "20190701T173018Z",
            "measure_xml_checksum" : "9882CBDB",
            "started_at" : "20200130T175848Z",
            "stderr" : "",
            "stdout" : "",
            "step_errors" : [],
            "step_files" : [],
            "step_final_condition" : "Water heater 'res wh' added to plant loop 'Domestic Hot Water Loop', with a capacity of 4.5 kBtu/hr and an actual tank volume of 36.0 gal.",
            "step_info" : [ "A new plant loop for DHW will be added to the model" ],
            "step_initial_condition" : "No water heater model currently exists",
            "step_result" : "Success",
            "step_values" : [
               {
                  "name" : "fuel_type",
                  "value" : "electric"
               },
               {
                  "name" : "tank_volume",
                  "value" : "auto"
               },
               {
                  "name" : "setpoint_temp",
                  "value" : 125
               },
               {
                  "name" : "location",
                  "value" : "auto"
               },
               {
                  "name" : "capacity",
                  "value" : "4.5"
               },
               {
                  "name" : "energy_factor",
                  "value" : "0.92"
               },
               {
                  "name" : "recovery_efficiency",
                  "value" : 0.97999999999999998
               },
               {
                  "name" : "offcyc_power",
                  "value" : 0
               },
               {
                  "name" : "oncyc_power",
                  "value" : 0
               }
            ],
            "step_warnings" : []
         }
      },
      {
         "arguments" : {
            "bath_mult" : "2.0",
            "plant_loop" : "auto",
            "schedule_day_shift" : "21",
            "shower_mult" : "2.0",
            "sink_mult" : "2.0"
         },
         "measure_dir_name" : "ResidentialHotWaterFixtures",
         "result" : {
            "completed_at" : "20200130T175848Z",
            "measure_class_name" : "ResidentialHotWaterFixtures",
            "measure_display_name" : "Set Residential Hot Water Fixtures",
            "measure_name" : "residential_hot_water_fixtures",
            "measure_taxonomy" : "Service Water Heating.Water Use",
            "measure_type" : "ModelMeasure",
            "measure_uid" : "6159fd36-6bfa-4907-9200-9cb852d50799",
            "measure_version_id" : "0bd23264-4169-4c8b-8787-60ced4bea1aa",
            "measure_version_modified" : "20190701T173018Z",
            "measure_xml_checksum" : "A6ACD89C",
            "started_at" : "20200130T175848Z",
            "stderr" : "",
            "stdout" : "[openstudio.model.YearDescription] <1> 'UseWeatherFile' is not yet a supported option for YearDescription\n[openstudio.model.YearDescription] <1> 'UseWeatherFile' is not yet a supported option for YearDescription\n[openstudio.model.YearDescription] <1> 'UseWeatherFile' is not yet a supported option for YearDescription\n",
            "step_errors" : [],
            "step_files" : [],
            "step_final_condition" : "Shower, sinks, and bath fixtures drawing 56.0, 50.0, and 14.0 gal/day respectively have been added to plant loop 'Domestic Hot Water Loop' and assigned to space 'living space'.",
            "step_info" : [],
            "step_result" : "Success",
            "step_values" : [
               {
                  "name" : "shower_mult",
                  "value" : 2
               },
               {
                  "name" : "sink_mult",
                  "value" : 2
               },
               {
                  "name" : "bath_mult",
                  "value" : 2
               },
               {
                  "name" : "plant_loop",
                  "value" : "auto"
               },
               {
                  "name" : "schedule_day_shift",
                  "value" : 21
               }
            ],
            "step_warnings" : []
         }
      },
      {
         "arguments" : {
            "dist_ins" : "0",
            "dist_layout" : "trunk and branch",
            "pipe_mat" : "copper",
            "recirc_type" : "none",
            "space" : "interior"
         },
         "measure_dir_name" : "ResidentialHotWaterDistribution",
         "result" : {
            "completed_at" : "20200130T175848Z",
            "measure_class_name" : "ResidentialHotWaterDistribution",
            "measure_display_name" : "Set Residential Hot Water Distribution",
            "measure_name" : "residential_hot_water_distribution",
            "measure_taxonomy" : "Service Water Heating.Distribution",
            "measure_type" : "ModelMeasure",
            "measure_uid" : "4615ccb7-3ce5-4627-b7c2-a7fea9c4af87",
            "measure_version_id" : "065b4593-563f-4fcb-a8d3-3b92d07bfec6",
            "measure_version_modified" : "20190701T173018Z",
            "measure_xml_checksum" : "D2231FB9",
            "started_at" : "20200130T175848Z",
            "stderr" : "",
            "stdout" : "[openstudio.model.YearDescription] <1> 'UseWeatherFile' is not yet a supported option for YearDescription\n",
            "step_errors" : [],
            "step_files" : [],
            "step_final_condition" : "A new copper, trunk and branch DHW distribution system has been assigned to the location interior of the home.",
            "step_info" : [],
            "step_result" : "Success",
            "step_values" : [
               {
                  "name" : "pipe_mat",
                  "value" : "copper"
               },
               {
                  "name" : "dist_layout",
                  "value" : "trunk and branch"
               },
               {
                  "name" : "space",
                  "value" : "interior"
               },
               {
                  "name" : "recirc_type",
                  "value" : "none"
               },
               {
                  "name" : "dist_ins",
                  "value" : 0
               }
            ],
            "step_warnings" : []
         }
      },
      {
         "arguments" : {
            "afue" : "1.0",
            "capacity" : "autosize",
            "dse" : "NA",
            "fan_power_installed" : "0.5",
            "fuel_type" : "electric"
         },
         "measure_dir_name" : "ResidentialHVACFurnace",
         "result" : {
            "completed_at" : "20200130T175849Z",
            "measure_class_name" : "ProcessFurnace",
            "measure_display_name" : "Set Residential Furnace",
            "measure_name" : "process_furnace",
            "measure_taxonomy" : "HVAC.Heating",
            "measure_type" : "ModelMeasure",
            "measure_uid" : "1a71ae9e-5485-4cca-a369-16c6b8a9c1d8",
            "measure_version_id" : "a05878f5-d082-4dc4-8905-3d09c368f908",
            "measure_version_modified" : "20190701T173020Z",
            "measure_xml_checksum" : "470FC630",
            "started_at" : "20200130T175848Z",
            "stderr" : "",
            "stdout" : "",
            "step_errors" : [],
            "step_files" : [],
            "step_info" : [
               "Added 'res fur electric htg supply fan' to 'res fur electric unitary system' of 'res fur electric asys'",
               "Added 'res fur electric heating coil' to 'res fur electric unitary system' of 'res fur electric asys'",
               "Added 'res fur electric asys' to 'living zone' of unit 1"
            ],
            "step_result" : "Success",
            "step_values" : [
               {
                  "name" : "fuel_type",
                  "value" : "electric"
               },
               {
                  "name" : "afue",
                  "value" : 1
               },
               {
                  "name" : "fan_power_installed",
                  "value" : 0.5
               },
               {
                  "name" : "capacity",
                  "value" : "autosize"
               },
               {
                  "name" : "dse",
                  "value" : "NA"
               }
            ],
            "step_warnings" : []
         }
      },
      {
         "arguments" : {
            "airflow_rate" : "350.0",
            "capacity" : "autosize",
            "eer" : "10.7",
            "shr" : "0.65"
         },
         "measure_dir_name" : "ResidentialHVACRoomAirConditioner",
         "result" : {
            "completed_at" : "20200130T175849Z",
            "measure_class_name" : "ProcessRoomAirConditioner",
            "measure_display_name" : "Set Residential Room Air Conditioner",
            "measure_name" : "process_room_air_conditioner",
            "measure_taxonomy" : "HVAC.Cooling",
            "measure_type" : "ModelMeasure",
            "measure_uid" : "eae61440-6574-4568-88d7-c735f9c3ea9f",
            "measure_version_id" : "0ad32a4a-46b2-48f4-83e9-12cd7d03d528",
            "measure_version_modified" : "20190701T173020Z",
            "measure_xml_checksum" : "D48F381B",
            "started_at" : "20200130T175849Z",
            "stderr" : "",
            "stdout" : "",
            "step_errors" : [],
            "step_files" : [],
            "step_info" : [ "Added 'res room ac zone ptac' to 'living zone' of unit 1" ],
            "step_result" : "Success",
            "step_values" : [
               {
                  "name" : "eer",
                  "value" : 10.699999999999999
               },
               {
                  "name" : "shr",
                  "value" : 0.65000000000000002
               },
               {
                  "name" : "airflow_rate",
                  "value" : 350
               },
               {
                  "name" : "capacity",
                  "value" : "autosize"
               }
            ],
            "step_warnings" : []
         }
      },
      {
         "arguments" : {
            "season_end_month" : "Dec",
            "season_start_month" : "Jan",
            "use_auto_season" : "false",
            "weekday_offset_magnitude" : "0",
            "weekday_offset_schedule" : "0,0,0,0,0,0,0,0,0,0,0,0,0,0,0,0,0,0,0,0,0,0,0,0",
            "weekday_setpoint" : "65",
            "weekend_offset_magnitude" : "0",
            "weekend_offset_schedule" : "0,0,0,0,0,0,0,0,0,0,0,0,0,0,0,0,0,0,0,0,0,0,0,0",
            "weekend_setpoint" : "65"
         },
         "measure_dir_name" : "ResidentialHVACHeatingSetpoints",
         "result" : {
            "completed_at" : "20200130T175849Z",
            "measure_class_name" : "ProcessHeatingSetpoints",
            "measure_display_name" : "Set Residential Heating Setpoints and Schedules",
            "measure_name" : "process_heating_setpoints",
            "measure_taxonomy" : "HVAC.HVAC Controls",
            "measure_type" : "ModelMeasure",
            "measure_uid" : "2b167665-f760-462d-8c9d-1d909da7b628",
            "measure_version_id" : "f62a0560-3fbd-4e23-bfc3-118d154029f4",
            "measure_version_modified" : "20190701T173020Z",
            "measure_xml_checksum" : "2C877DEB",
            "started_at" : "20200130T175849Z",
            "stderr" : "",
            "stdout" : "[openstudio.model.YearDescription] <1> 'UseWeatherFile' is not yet a supported option for YearDescription\n[openstudio.model.YearDescription] <1> 'UseWeatherFile' is not yet a supported option for YearDescription\n[openstudio.model.YearDescription] <1> 'UseWeatherFile' is not yet a supported option for YearDescription\n",
            "step_errors" : [],
            "step_files" : [],
            "step_info" : [
               "Created new thermostat living zone temperature setpoint for living zone.",
               "Set a dummy cooling setpoint schedule for living zone temperature setpoint.",
               "Set the heating setpoint schedule for living zone temperature setpoint."
            ],
            "step_result" : "Success",
            "step_values" : [
               {
                  "name" : "weekday_setpoint",
                  "value" : "65"
               },
               {
                  "name" : "weekend_setpoint",
                  "value" : "65"
               },
               {
                  "name" : "weekday_offset_magnitude",
                  "value" : 0
               },
               {
                  "name" : "weekend_offset_magnitude",
                  "value" : 0
               },
               {
                  "name" : "weekday_offset_schedule",
                  "value" : "0,0,0,0,0,0,0,0,0,0,0,0,0,0,0,0,0,0,0,0,0,0,0,0"
               },
               {
                  "name" : "weekend_offset_schedule",
                  "value" : "0,0,0,0,0,0,0,0,0,0,0,0,0,0,0,0,0,0,0,0,0,0,0,0"
               },
               {
                  "name" : "use_auto_season",
                  "value" : false
               },
               {
                  "name" : "season_start_month",
                  "value" : "Jan"
               },
               {
                  "name" : "season_end_month",
                  "value" : "Dec"
               }
            ],
            "step_warnings" : []
         }
      },
      {
         "arguments" : {
            "season_end_month" : "Dec",
            "season_start_month" : "Jan",
            "use_auto_season" : "false",
            "weekday_offset_magnitude" : "0",
            "weekday_offset_schedule" : "0,0,0,0,0,0,0,0,0,0,0,0,0,0,0,0,0,0,0,0,0,0,0,0",
            "weekday_setpoint" : "72",
            "weekend_offset_magnitude" : "0",
            "weekend_offset_schedule" : "0,0,0,0,0,0,0,0,0,0,0,0,0,0,0,0,0,0,0,0,0,0,0,0",
            "weekend_setpoint" : "72"
         },
         "measure_dir_name" : "ResidentialHVACCoolingSetpoints",
         "result" : {
            "completed_at" : "20200130T175850Z",
            "measure_class_name" : "ProcessCoolingSetpoints",
            "measure_display_name" : "Set Residential Cooling Setpoints and Schedules",
            "measure_name" : "process_cooling_setpoints",
            "measure_taxonomy" : "HVAC.HVAC Controls",
            "measure_type" : "ModelMeasure",
            "measure_uid" : "2daa9d28-8891-4074-a1d1-bce3cb3d7ac6",
            "measure_version_id" : "471f1d0e-ad9b-464f-aa90-3fc4d555a82e",
            "measure_version_modified" : "20190701T173020Z",
            "measure_xml_checksum" : "356BE47F",
            "started_at" : "20200130T175849Z",
            "stderr" : "",
            "stdout" : "[openstudio.model.YearDescription] <1> 'UseWeatherFile' is not yet a supported option for YearDescription\n[openstudio.model.YearDescription] <1> 'UseWeatherFile' is not yet a supported option for YearDescription\n[openstudio.model.YearDescription] <1> 'UseWeatherFile' is not yet a supported option for YearDescription\n",
            "step_errors" : [],
            "step_files" : [],
            "step_info" : [
               "Found existing thermostat living zone temperature setpoint for living zone.",
               "Set the cooling setpoint schedule for living zone temperature setpoint."
            ],
            "step_result" : "Success",
            "step_values" : [
               {
                  "name" : "weekday_setpoint",
                  "value" : "72"
               },
               {
                  "name" : "weekend_setpoint",
                  "value" : "72"
               },
               {
                  "name" : "weekday_offset_magnitude",
                  "value" : 0
               },
               {
                  "name" : "weekend_offset_magnitude",
                  "value" : 0
               },
               {
                  "name" : "weekday_offset_schedule",
                  "value" : "0,0,0,0,0,0,0,0,0,0,0,0,0,0,0,0,0,0,0,0,0,0,0,0"
               },
               {
                  "name" : "weekend_offset_schedule",
                  "value" : "0,0,0,0,0,0,0,0,0,0,0,0,0,0,0,0,0,0,0,0,0,0,0,0"
               },
               {
                  "name" : "use_auto_season",
                  "value" : false
               },
               {
                  "name" : "season_start_month",
                  "value" : "Jan"
               },
               {
                  "name" : "season_end_month",
                  "value" : "Dec"
               }
            ],
            "step_warnings" : []
         }
      },
      {
         "arguments" : {
            "control" : "typical",
            "cooling_setpoint_offset" : "0",
            "coverage" : "NA",
            "monthly_sch" : "1.248, 1.257, 0.993, 0.989, 0.993, 0.827, 0.821, 0.821, 0.827, 0.99, 0.987, 1.248",
            "mult" : "1",
            "power" : "45",
            "specified_num" : "1",
            "use_benchmark_energy" : "true",
            "weekday_sch" : "0.04, 0.037, 0.037, 0.036, 0.033, 0.036, 0.043, 0.047, 0.034, 0.023, 0.024, 0.025, 0.024, 0.028, 0.031, 0.032, 0.039, 0.053, 0.063, 0.067, 0.071, 0.069, 0.059, 0.05",
            "weekend_sch" : "0.04, 0.037, 0.037, 0.036, 0.033, 0.036, 0.043, 0.047, 0.034, 0.023, 0.024, 0.025, 0.024, 0.028, 0.031, 0.032, 0.039, 0.053, 0.063, 0.067, 0.071, 0.069, 0.059, 0.05"
         },
         "measure_dir_name" : "ResidentialHVACCeilingFan",
         "result" : {
            "completed_at" : "20200130T175850Z",
            "measure_class_name" : "ProcessCeilingFan",
            "measure_display_name" : "Set Residential Ceiling Fan",
            "measure_name" : "process_ceiling_fan",
            "measure_taxonomy" : "HVAC.Cooling",
            "measure_type" : "ModelMeasure",
            "measure_uid" : "f65edfd9-ff4f-4f08-a245-ea48b3b3c88e",
            "measure_version_id" : "917ad684-9e00-4a83-a396-7a88f842c25c",
            "measure_version_modified" : "20190701T173019Z",
            "measure_xml_checksum" : "D48F381B",
            "started_at" : "20200130T175850Z",
            "stderr" : "",
            "stdout" : "[openstudio.model.YearDescription] <1> 'UseWeatherFile' is not yet a supported option for YearDescription\n[openstudio.model.YearDescription] <1> 'UseWeatherFile' is not yet a supported option for YearDescription\n",
            "step_errors" : [],
            "step_files" : [],
            "step_info" : [],
            "step_result" : "Success",
            "step_values" : [
               {
                  "name" : "coverage",
                  "value" : "NA"
               },
               {
                  "name" : "specified_num",
                  "value" : "1"
               },
               {
                  "name" : "power",
                  "value" : 45
               },
               {
                  "name" : "control",
                  "value" : "typical"
               },
               {
                  "name" : "use_benchmark_energy",
                  "value" : true
               },
               {
                  "name" : "mult",
                  "value" : 1
               },
               {
                  "name" : "cooling_setpoint_offset",
                  "value" : 0
               },
               {
                  "name" : "weekday_sch",
                  "value" : "0.04, 0.037, 0.037, 0.036, 0.033, 0.036, 0.043, 0.047, 0.034, 0.023, 0.024, 0.025, 0.024, 0.028, 0.031, 0.032, 0.039, 0.053, 0.063, 0.067, 0.071, 0.069, 0.059, 0.05"
               },
               {
                  "name" : "weekend_sch",
                  "value" : "0.04, 0.037, 0.037, 0.036, 0.033, 0.036, 0.043, 0.047, 0.034, 0.023, 0.024, 0.025, 0.024, 0.028, 0.031, 0.032, 0.039, 0.053, 0.063, 0.067, 0.071, 0.069, 0.059, 0.05"
               },
               {
                  "name" : "monthly_sch",
                  "value" : "1.248, 1.257, 0.993, 0.989, 0.993, 0.827, 0.821, 0.821, 0.827, 0.99, 0.987, 1.248"
               }
            ],
            "step_warnings" : []
         }
      },
      {
         "arguments" : {
            "location" : "auto",
            "monthly_sch" : "0.837, 0.835, 1.084, 1.084, 1.084, 1.096, 1.096, 1.096, 1.096, 0.931, 0.925, 0.837",
            "mult" : "1.0",
            "rated_annual_energy" : "727.0",
            "weekday_sch" : "0.040, 0.039, 0.038, 0.037, 0.036, 0.036, 0.038, 0.040, 0.041, 0.041, 0.040, 0.040, 0.042, 0.042, 0.042, 0.041, 0.044, 0.048, 0.050, 0.048, 0.047, 0.046, 0.044, 0.041",
            "weekend_sch" : "0.040, 0.039, 0.038, 0.037, 0.036, 0.036, 0.038, 0.040, 0.041, 0.041, 0.040, 0.040, 0.042, 0.042, 0.042, 0.041, 0.044, 0.048, 0.050, 0.048, 0.047, 0.046, 0.044, 0.041"
         },
         "measure_dir_name" : "ResidentialApplianceRefrigerator",
         "result" : {
            "completed_at" : "20200130T175850Z",
            "measure_class_name" : "ResidentialRefrigerator",
            "measure_display_name" : "Set Residential Refrigerator",
            "measure_name" : "residential_refrigerator",
            "measure_taxonomy" : "Equipment.Electric Equipment",
            "measure_type" : "ModelMeasure",
            "measure_uid" : "f0259bdc-1391-41eb-80eb-efc10bd1bc02",
            "measure_version_id" : "c53448a8-61a4-424a-b3d5-6acaee631b1d",
            "measure_version_modified" : "20191127T155232Z",
            "measure_xml_checksum" : "126F1C43",
            "started_at" : "20200130T175850Z",
            "stderr" : "",
            "stdout" : "[openstudio.model.YearDescription] <1> 'UseWeatherFile' is not yet a supported option for YearDescription\n",
            "step_errors" : [],
            "step_files" : [],
            "step_final_condition" : "A refrigerator with 727 kWhs annual energy consumption has been assigned to space 'living space'.",
            "step_info" : [],
            "step_result" : "Success",
            "step_values" : [
               {
                  "name" : "rated_annual_energy",
                  "value" : 727
               },
               {
                  "name" : "mult",
                  "value" : 1
               },
               {
                  "name" : "weekday_sch",
                  "value" : "0.040, 0.039, 0.038, 0.037, 0.036, 0.036, 0.038, 0.040, 0.041, 0.041, 0.040, 0.040, 0.042, 0.042, 0.042, 0.041, 0.044, 0.048, 0.050, 0.048, 0.047, 0.046, 0.044, 0.041"
               },
               {
                  "name" : "weekend_sch",
                  "value" : "0.040, 0.039, 0.038, 0.037, 0.036, 0.036, 0.038, 0.040, 0.041, 0.041, 0.040, 0.040, 0.042, 0.042, 0.042, 0.041, 0.044, 0.048, 0.050, 0.048, 0.047, 0.046, 0.044, 0.041"
               },
               {
                  "name" : "monthly_sch",
                  "value" : "0.837, 0.835, 1.084, 1.084, 1.084, 1.096, 1.096, 1.096, 1.096, 0.931, 0.925, 0.837"
               },
               {
                  "name" : "location",
                  "value" : "auto"
               }
            ],
            "step_warnings" : []
         }
      },
      {
         "arguments" : {
            "annual_cost" : "24.0",
            "cold_cycle" : "false",
            "drum_volume" : "3.5",
            "fill_sensor" : "false",
            "imef" : "0.95",
            "internal_heater" : "false",
            "location" : "auto",
            "mult_e" : "1.2",
            "mult_hw" : "1.2",
            "plant_loop" : "auto",
            "rated_annual_energy" : "387.0",
            "schedule_day_shift" : "21",
            "test_date" : "2007",
            "thermostatic_control" : "true"
         },
         "measure_dir_name" : "ResidentialApplianceClothesWasher",
         "result" : {
            "completed_at" : "20200130T175851Z",
            "measure_class_name" : "ResidentialClothesWasher",
            "measure_display_name" : "Set Residential Clothes Washer",
            "measure_name" : "residential_clothes_washer",
            "measure_taxonomy" : "Equipment.Electric Equipment",
            "measure_type" : "ModelMeasure",
            "measure_uid" : "640bfdca-ba67-461e-b517-1a7291c22b22",
            "measure_version_id" : "c0dc2118-73d1-4b34-bbf3-192ab27d2802",
            "measure_version_modified" : "20191127T155231Z",
            "measure_xml_checksum" : "126F1C43",
            "started_at" : "20200130T175851Z",
            "stderr" : "",
            "stdout" : "[openstudio.model.YearDescription] <1> 'UseWeatherFile' is not yet a supported option for YearDescription\n",
            "step_errors" : [],
            "step_files" : [],
            "step_final_condition" : "A clothes washer with 52 kWhs annual energy consumption has been added to plant loop 'Domestic Hot Water Loop' and assigned to space 'living space'.",
            "step_info" : [],
            "step_result" : "Success",
            "step_values" : [
               {
                  "name" : "imef",
                  "value" : 0.94999999999999996
               },
               {
                  "name" : "rated_annual_energy",
                  "value" : 387
               },
               {
                  "name" : "annual_cost",
                  "value" : 24
               },
               {
                  "name" : "test_date",
                  "value" : 2007
               },
               {
                  "name" : "drum_volume",
                  "value" : 3.5
               },
               {
                  "name" : "cold_cycle",
                  "value" : false
               },
               {
                  "name" : "thermostatic_control",
                  "value" : true
               },
               {
                  "name" : "internal_heater",
                  "value" : false
               },
               {
                  "name" : "fill_sensor",
                  "value" : false
               },
               {
                  "name" : "mult_e",
                  "value" : 1.2
               },
               {
                  "name" : "mult_hw",
                  "value" : 1.2
               },
               {
                  "name" : "location",
                  "value" : "auto"
               },
               {
                  "name" : "plant_loop",
                  "value" : "auto"
               },
               {
                  "name" : "schedule_day_shift",
                  "value" : 21
               }
            ],
            "step_warnings" : []
         }
      },
      {
         "arguments" : {
            "cef" : "2.70",
            "fuel_split" : "1.0",
            "fuel_type" : "electric",
            "location" : "auto",
            "mult" : "1.2"
         },
         "measure_dir_name" : "ResidentialApplianceClothesDryer",
         "result" : {
            "completed_at" : "20200130T175851Z",
            "measure_class_name" : "ResidentialClothesDryer",
            "measure_display_name" : "Set Residential Clothes Dryer",
            "measure_name" : "residential_clothes_dryer",
            "measure_taxonomy" : "Equipment.Gas Equipment",
            "measure_type" : "ModelMeasure",
            "measure_uid" : "0ed6fb35-c3e0-4a33-a397-ce4cec92d96e",
            "measure_version_id" : "8b9f2859-598c-45fb-8cda-f8eb186350a2",
            "measure_version_modified" : "20191016T181810Z",
            "measure_xml_checksum" : "25A40D75",
            "started_at" : "20200130T175851Z",
            "stderr" : "",
            "stdout" : "[openstudio.model.YearDescription] <1> 'UseWeatherFile' is not yet a supported option for YearDescription\n",
            "step_errors" : [],
            "step_files" : [],
            "step_final_condition" : "A clothes dryer with 1236 kWhs annual energy consumption has been assigned to space 'living space'.",
            "step_info" : [],
            "step_result" : "Success",
            "step_values" : [
               {
                  "name" : "fuel_type",
                  "value" : "electric"
               },
               {
                  "name" : "cef",
                  "value" : 2.7000000000000002
               },
               {
                  "name" : "fuel_split",
                  "value" : 1
               },
               {
                  "name" : "mult",
                  "value" : 1.2
               },
               {
                  "name" : "location",
                  "value" : "auto"
               }
            ],
            "step_warnings" : []
         }
      },
      {
         "arguments" : {
            "annual_gas_cost" : "24.0",
            "cold_inlet" : "false",
            "cold_use" : "0.0",
            "has_internal_heater" : "true",
            "location" : "auto",
            "mult_e" : "1.2",
            "mult_hw" : "1.2",
            "num_settings" : "8",
            "plant_loop" : "auto",
            "rated_annual_energy" : "318.0",
            "schedule_day_shift" : "21",
            "test_date" : "2007"
         },
         "measure_dir_name" : "ResidentialApplianceDishwasher",
         "result" : {
            "completed_at" : "20200130T175851Z",
            "measure_class_name" : "ResidentialDishwasher",
            "measure_display_name" : "Set Residential Dishwasher",
            "measure_name" : "residential_dishwasher",
            "measure_taxonomy" : "Equipment.Electric Equipment",
            "measure_type" : "ModelMeasure",
            "measure_uid" : "09ea4570-4666-4a55-812f-5e90091f5325",
            "measure_version_id" : "83b1cbef-9409-4e9c-b9ec-af77a17bddc5",
            "measure_version_modified" : "20191016T190852Z",
            "measure_xml_checksum" : "126F1C43",
            "started_at" : "20200130T175851Z",
            "stderr" : "",
            "stdout" : "[openstudio.model.YearDescription] <1> 'UseWeatherFile' is not yet a supported option for YearDescription\n",
            "step_errors" : [],
            "step_files" : [],
            "step_final_condition" : "A dishwasher with 133 kWhs annual energy consumption has been added to plant loop 'Domestic Hot Water Loop' and assigned to space 'living space'.",
            "step_info" : [],
            "step_result" : "Success",
            "step_values" : [
               {
                  "name" : "num_settings",
                  "value" : 8
               },
               {
                  "name" : "rated_annual_energy",
                  "value" : 318
               },
               {
                  "name" : "has_internal_heater",
                  "value" : true
               },
               {
                  "name" : "cold_inlet",
                  "value" : false
               },
               {
                  "name" : "cold_use",
                  "value" : 0
               },
               {
                  "name" : "test_date",
                  "value" : 2007
               },
               {
                  "name" : "annual_gas_cost",
                  "value" : 24
               },
               {
                  "name" : "mult_e",
                  "value" : 1.2
               },
               {
                  "name" : "mult_hw",
                  "value" : 1.2
               },
               {
                  "name" : "location",
                  "value" : "auto"
               },
               {
                  "name" : "plant_loop",
                  "value" : "auto"
               },
               {
                  "name" : "schedule_day_shift",
                  "value" : 21
               }
            ],
            "step_warnings" : []
         }
      },
      {
         "arguments" : {
            "cooktop_ef" : "0.74",
            "fuel_type" : "electric",
            "has_elec_ignition" : "true",
            "location" : "auto",
[...]
               },
               {
                  "name" : "hot_tub_pump_mult",
                  "value" : 0.058999999999999997
               },
               {
                  "name" : "hot_tub_scale_energy",
                  "value" : true
               },
               {
                  "name" : "hot_tub_weekday_sch",
                  "value" : "0.024, 0.029, 0.024, 0.029, 0.047, 0.067, 0.057, 0.024, 0.024, 0.019, 0.015, 0.014, 0.014, 0.014, 0.024, 0.058, 0.126, 0.122, 0.068, 0.061, 0.051, 0.043, 0.024, 0.024"
               },
               {
                  "name" : "hot_tub_weekend_sch",
                  "value" : "0.024, 0.029, 0.024, 0.029, 0.047, 0.067, 0.057, 0.024, 0.024, 0.019, 0.015, 0.014, 0.014, 0.014, 0.024, 0.058, 0.126, 0.122, 0.068, 0.061, 0.051, 0.043, 0.024, 0.024"
               },
               {
                  "name" : "hot_tub_monthly_sch",
                  "value" : "0.921, 0.928, 0.921, 0.915, 0.921, 1.160, 1.158, 1.158, 1.160, 0.921, 0.915, 0.921"
               },
               {
                  "name" : "well_pump_annual_energy",
                  "value" : 400
               },
               {
                  "name" : "well_pump_mult",
                  "value" : 0.127
               },
               {
                  "name" : "well_pump_scale_energy",
                  "value" : true
               },
               {
                  "name" : "well_pump_weekday_sch",
                  "value" : "0.044, 0.023, 0.019, 0.015, 0.016, 0.018, 0.026, 0.033, 0.033, 0.032, 0.033, 0.033, 0.032, 0.032, 0.032, 0.033, 0.045, 0.057, 0.066, 0.076, 0.081, 0.086, 0.075, 0.065"
               },
               {
                  "name" : "well_pump_weekend_sch",
                  "value" : "0.044, 0.023, 0.019, 0.015, 0.016, 0.018, 0.026, 0.033, 0.033, 0.032, 0.033, 0.033, 0.032, 0.032, 0.032, 0.033, 0.045, 0.057, 0.066, 0.076, 0.081, 0.086, 0.075, 0.065"
               },
               {
                  "name" : "well_pump_monthly_sch",
                  "value" : "1.154, 1.161, 1.013, 1.010, 1.013, 0.888, 0.883, 0.883, 0.888, 0.978, 0.974, 1.154"
               },
               {
                  "name" : "gas_fireplace_annual_energy",
                  "value" : 60
               },
               {
                  "name" : "gas_fireplace_mult",
                  "value" : 0.032000000000000001
               },
               {
                  "name" : "gas_fireplace_scale_energy",
                  "value" : true
               },
               {
                  "name" : "gas_fireplace_weekday_sch",
                  "value" : "0.044, 0.023, 0.019, 0.015, 0.016, 0.018, 0.026, 0.033, 0.033, 0.032, 0.033, 0.033, 0.032, 0.032, 0.032, 0.033, 0.045, 0.057, 0.066, 0.076, 0.081, 0.086, 0.075, 0.065"
               },
               {
                  "name" : "gas_fireplace_weekend_sch",
                  "value" : "0.044, 0.023, 0.019, 0.015, 0.016, 0.018, 0.026, 0.033, 0.033, 0.032, 0.033, 0.033, 0.032, 0.032, 0.032, 0.033, 0.045, 0.057, 0.066, 0.076, 0.081, 0.086, 0.075, 0.065"
               },
               {
                  "name" : "gas_fireplace_monthly_sch",
                  "value" : "1.154, 1.161, 1.013, 1.010, 1.013, 0.888, 0.883, 0.883, 0.888, 0.978, 0.974, 1.154"
               },
               {
                  "name" : "gas_fireplace_location",
                  "value" : "auto"
               },
               {
                  "name" : "gas_grill_annual_energy",
                  "value" : 30
               },
               {
                  "name" : "gas_grill_mult",
                  "value" : 0.029000000000000001
               },
               {
                  "name" : "gas_grill_scale_energy",
                  "value" : true
               },
               {
                  "name" : "gas_grill_weekday_sch",
                  "value" : "0.004, 0.001, 0.001, 0.002, 0.007, 0.012, 0.029, 0.046, 0.044, 0.041, 0.044, 0.046, 0.042, 0.038, 0.049, 0.059, 0.110, 0.161, 0.115, 0.070, 0.044, 0.019, 0.013, 0.007"
               },
               {
                  "name" : "gas_grill_weekend_sch",
                  "value" : "0.004, 0.001, 0.001, 0.002, 0.007, 0.012, 0.029, 0.046, 0.044, 0.041, 0.044, 0.046, 0.042, 0.038, 0.049, 0.059, 0.110, 0.161, 0.115, 0.070, 0.044, 0.019, 0.013, 0.007"
               },
               {
                  "name" : "gas_grill_monthly_sch",
                  "value" : "1.097, 1.097, 0.991, 0.987, 0.991, 0.890, 0.896, 0.896, 0.890, 1.085, 1.085, 1.097"
               },
               {
                  "name" : "gas_lighting_annual_energy",
                  "value" : 19
               },
               {
                  "name" : "gas_lighting_mult",
                  "value" : 0.012
               },
               {
                  "name" : "gas_lighting_scale_energy",
                  "value" : true
               },
               {
                  "name" : "gas_lighting_weekday_sch",
                  "value" : "0.044, 0.023, 0.019, 0.015, 0.016, 0.018, 0.026, 0.033, 0.033, 0.032, 0.033, 0.033, 0.032, 0.032, 0.032, 0.033, 0.045, 0.057, 0.066, 0.076, 0.081, 0.086, 0.075, 0.065"
               },
               {
                  "name" : "gas_lighting_weekend_sch",
                  "value" : "0.044, 0.023, 0.019, 0.015, 0.016, 0.018, 0.026, 0.033, 0.033, 0.032, 0.033, 0.033, 0.032, 0.032, 0.032, 0.033, 0.045, 0.057, 0.066, 0.076, 0.081, 0.086, 0.075, 0.065"
               },
               {
                  "name" : "gas_lighting_monthly_sch",
                  "value" : "1.154, 1.161, 1.013, 1.010, 1.013, 0.888, 0.883, 0.883, 0.888, 0.978, 0.974, 1.154"
               },
               {
                  "name" : "ev_annual_energy",
                  "value" : 1852
               },
               {
                  "name" : "ev_charger_mult",
                  "value" : 1
               },
               {
                  "name" : "ev_charger_weekday_sch",
                  "value" : "0.042, 0.042, 0.042, 0.042, 0.042, 0.042, 0.042, 0.042, 0.042, 0.042, 0.042, 0.042, 0.042, 0.042, 0.042, 0.042, 0.042, 0.042, 0.042, 0.042, 0.042, 0.042, 0.042, 0.042"
               },
               {
                  "name" : "ev_charger_weekend_sch",
                  "value" : "0.042, 0.042, 0.042, 0.042, 0.042, 0.042, 0.042, 0.042, 0.042, 0.042, 0.042, 0.042, 0.042, 0.042, 0.042, 0.042, 0.042, 0.042, 0.042, 0.042, 0.042, 0.042, 0.042, 0.042"
               },
               {
                  "name" : "ev_charger_monthly_sch",
                  "value" : "1, 1, 1, 1, 1, 1, 1, 1, 1, 1, 1, 1"
               }
            ],
            "step_warnings" : []
         }
      },
      {
         "arguments" : {
            "bathroom_exhaust_hour" : "7",
            "clothes_dryer_exhaust" : "100",
            "crawl_ach" : "0",
            "duct_ah_return_frac" : "0.267",
            "duct_ah_supply_frac" : "0.067",
            "duct_location" : "auto",
            "duct_location_frac" : "auto",
            "duct_num_returns" : "auto",
            "duct_r" : "0",
            "duct_return_area_mult" : "1",
            "duct_return_frac" : "0.067",
            "duct_supply_area_mult" : "1",
            "duct_supply_frac" : "0.6",
            "duct_total_leakage" : "0.2",
            "finished_basement_ach" : "0",
            "garage_ach50" : "15",
            "has_fireplace_chimney" : "false",
            "has_hvac_flue" : "false",
            "has_water_heater_flue" : "false",
            "is_existing_home" : "true",
            "living_ach50" : "15",
            "mech_vent_ashrae_std" : "2010",
            "mech_vent_cfis_airflow_frac" : "1.0",
            "mech_vent_cfis_open_time" : "20.0",
            "mech_vent_fan_power" : "0",
            "mech_vent_frac_62_2" : "0",
            "mech_vent_infil_credit" : "false",
            "mech_vent_sensible_efficiency" : "0",
            "mech_vent_total_efficiency" : "0",
            "mech_vent_type" : "none",
            "nat_vent_clg_offset" : "1",
            "nat_vent_clg_season" : "true",
            "nat_vent_frac_window_area_openable" : "0.2",
            "nat_vent_frac_windows_open" : "0.33",
            "nat_vent_htg_offset" : "1",
            "nat_vent_htg_season" : "true",
            "nat_vent_max_oa_hr" : "0.0115",
            "nat_vent_max_oa_rh" : "0.7",
            "nat_vent_num_weekdays" : "3",
            "nat_vent_num_weekends" : "0",
            "nat_vent_ovlp_offset" : "1",
            "nat_vent_ovlp_season" : "true",
            "pier_beam_ach" : "100",
            "range_exhaust_hour" : "13",
            "shelter_coef" : "auto",
            "terrain" : "suburban",
            "unfinished_attic_sla" : "0.00333",
            "unfinished_basement_ach" : "0.1"
         },
         "measure_dir_name" : "ResidentialAirflow",
         "result" : {
            "completed_at" : "20200130T175854Z",
            "measure_class_name" : "ResidentialAirflow",
            "measure_display_name" : "Set Residential Airflow",
            "measure_name" : "residential_airflow",
            "measure_taxonomy" : "Envelope.Infiltration",
            "measure_type" : "ModelMeasure",
            "measure_uid" : "7d2adf5c-9995-49be-b662-a23d2452bb36",
            "measure_version_id" : "5600e787-9f5e-4ec1-b67e-b3bf34698537",
            "measure_version_modified" : "20190701T173015Z",
            "measure_xml_checksum" : "19EEDBBB",
            "started_at" : "20200130T175853Z",
            "stderr" : "",
            "stdout" : "[openstudio.model.YearDescription] <1> 'UseWeatherFile' is not yet a supported option for YearDescription\n[openstudio.model.YearDescription] <1> 'UseWeatherFile' is not yet a supported option for YearDescription\n[openstudio.model.YearDescription] <1> 'UseWeatherFile' is not yet a supported option for YearDescription\n[openstudio.model.YearDescription] <1> 'UseWeatherFile' is not yet a supported option for YearDescription\n[openstudio.model.YearDescription] <1> 'UseWeatherFile' is not yet a supported option for YearDescription\n",
            "step_errors" : [],
            "step_files" : [],
            "step_info" : [ "Either no forced air equipment or ducts in conditioned space." ],
            "step_result" : "Success",
            "step_values" : [
               {
                  "name" : "living_ach50",
                  "value" : 15
               },
               {
                  "name" : "garage_ach50",
                  "value" : 15
               },
               {
                  "name" : "finished_basement_ach",
                  "value" : 0
               },
               {
                  "name" : "unfinished_basement_ach",
                  "value" : 0.10000000000000001
               },
               {
                  "name" : "crawl_ach",
                  "value" : 0
               },
               {
                  "name" : "pier_beam_ach",
                  "value" : 100
               },
               {
                  "name" : "unfinished_attic_sla",
                  "value" : 0.0033300000000000001
               },
               {
                  "name" : "shelter_coef",
                  "value" : "auto"
               },
               {
                  "name" : "has_hvac_flue",
                  "value" : false
               },
               {
                  "name" : "has_water_heater_flue",
                  "value" : false
               },
               {
                  "name" : "has_fireplace_chimney",
                  "value" : false
               },
               {
                  "name" : "terrain",
                  "value" : "suburban"
               },
               {
                  "name" : "mech_vent_type",
                  "value" : "none"
               },
               {
                  "name" : "mech_vent_fan_power",
                  "value" : 0
               },
               {
                  "name" : "mech_vent_total_efficiency",
                  "value" : 0
               },
               {
                  "name" : "mech_vent_sensible_efficiency",
                  "value" : 0
               },
               {
                  "name" : "mech_vent_frac_62_2",
                  "value" : 0
               },
               {
                  "name" : "mech_vent_ashrae_std",
                  "value" : "2010"
               },
               {
                  "name" : "mech_vent_infil_credit",
                  "value" : false
               },
               {
                  "name" : "is_existing_home",
                  "value" : true
               },
               {
                  "name" : "mech_vent_cfis_open_time",
                  "value" : 20
               },
               {
                  "name" : "mech_vent_cfis_airflow_frac",
                  "value" : 1
               },
               {
                  "name" : "range_exhaust_hour",
                  "value" : 13
               },
               {
                  "name" : "bathroom_exhaust_hour",
                  "value" : 7
               },
               {
                  "name" : "clothes_dryer_exhaust",
                  "value" : 100
               },
               {
                  "name" : "nat_vent_htg_offset",
                  "value" : 1
               },
               {
                  "name" : "nat_vent_clg_offset",
                  "value" : 1
               },
               {
                  "name" : "nat_vent_ovlp_offset",
                  "value" : 1
               },
               {
                  "name" : "nat_vent_htg_season",
                  "value" : true
               },
               {
                  "name" : "nat_vent_clg_season",
                  "value" : true
               },
               {
                  "name" : "nat_vent_ovlp_season",
                  "value" : true
               },
               {
                  "name" : "nat_vent_num_weekdays",
                  "value" : 3
               },
               {
                  "name" : "nat_vent_num_weekends",
                  "value" : 0
               },
               {
                  "name" : "nat_vent_frac_windows_open",
                  "value" : 0.33000000000000002
               },
               {
                  "name" : "nat_vent_frac_window_area_openable",
                  "value" : 0.20000000000000001
               },
               {
                  "name" : "nat_vent_max_oa_hr",
                  "value" : 0.0115
               },
               {
                  "name" : "nat_vent_max_oa_rh",
                  "value" : 0.69999999999999996
               },
               {
                  "name" : "duct_location",
                  "value" : "auto"
               },
               {
                  "name" : "duct_total_leakage",
                  "value" : 0.20000000000000001
               },
               {
                  "name" : "duct_supply_frac",
                  "value" : 0.59999999999999998
               },
               {
                  "name" : "duct_return_frac",
                  "value" : 0.067000000000000004
               },
               {
                  "name" : "duct_ah_supply_frac",
                  "value" : 0.067000000000000004
               },
               {
                  "name" : "duct_ah_return_frac",
                  "value" : 0.26700000000000002
               },
               {
                  "name" : "duct_location_frac",
                  "value" : "auto"
               },
               {
                  "name" : "duct_num_returns",
                  "value" : "auto"
               },
               {
                  "name" : "duct_supply_area_mult",
                  "value" : 1
               },
               {
                  "name" : "duct_return_area_mult",
                  "value" : 1
               },
               {
                  "name" : "duct_r",
                  "value" : 0
               }
            ],
            "step_warnings" : []
         }
      },
      {
         "arguments" : {
            "show_debug_info" : "true"
         },
         "measure_dir_name" : "ResidentialHVACSizing",
         "result" : {
            "completed_at" : "20200130T175855Z",
            "measure_class_name" : "ProcessHVACSizing",
            "measure_display_name" : "Set Residential HVAC Sizing",
            "measure_name" : "process_hvac_sizing",
            "measure_taxonomy" : "HVAC.HVAC Controls",
            "measure_type" : "ModelMeasure",
            "measure_uid" : "6cd70740-6ca3-4575-8b1e-663976e254d0",
            "measure_version_id" : "86dc85ce-8743-4ffa-9215-c1e898f8130b",
            "measure_version_modified" : "20190701T173020Z",
            "measure_xml_checksum" : "356BE47F",
            "started_at" : "20200130T175854Z",
            "stderr" : "",
            "stdout" : "[openstudio.model.YearDescription] <1> 'UseWeatherFile' is not yet a supported option for YearDescription\n[openstudio.model.YearDescription] <1> 'UseWeatherFile' is not yet a supported option for YearDescription\n[openstudio.model.YearDescription] <1> 'UseWeatherFile' is not yet a supported option for YearDescription\n[openstudio.model.YearDescription] <1> 'UseWeatherFile' is not yet a supported option for YearDescription\n[openstudio.model.YearDescription] <1> 'UseWeatherFile' is not yet a supported option for YearDescription\n[openstudio.model.YearDescription] <1> 'UseWeatherFile' is not yet a supported option for YearDescription\n[openstudio.model.YearDescription] <1> 'UseWeatherFile' is not yet a supported option for YearDescription\n",
            "step_errors" : [],
            "step_files" : [],
            "step_final_condition" : "HVAC objects updated as appropriate.",
            "step_info" : [
               "Added heating/cooling design days for autosizing.",
               "Found room air conditioner in living zone.",
               "Found furnace in living zone.",
               "unit 1 Zone Loads for living zone:\nHeat Windows = 1122 Btu/hr\nHeat Skylights = 0 Btu/hr\nHeat Doors = 0 Btu/hr\nHeat Walls = 1189 Btu/hr\nHeat Roofs = 5536 Btu/hr\nHeat Floors = 0 Btu/hr\nHeat Infil = 4609 Btu/hr\nCool Windows = 1801 Btu/hr\nCool Skylights = 0 Btu/hr\nCool Doors = 0 Btu/hr\nCool Walls = 263 Btu/hr\nCool Roofs = 3767 Btu/hr\nCool Floors = 0 Btu/hr\nCool Infil Sens = 327 Btu/hr\nCool Infil Lat = -419 Btu/hr\nCool IntGains Sens = 3842 Btu/hr\nCool IntGains Lat = 1099 Btu/hr\nDehumid Windows = -222 Btu/hr\nDehumid Skylights = 0 Btu/hr\nDehumid Doors = 0 Btu/hr\nDehumid Walls = -235 Btu/hr\nDehumid Roofs = -1094 Btu/hr\nDehumid Floors = 0 Btu/hr\nDehumid Infil Sens = -746 Btu/hr\nDehumid Infil Lat = -330 Btu/hr\nDehumid IntGains Sens = 3052 Btu/hr\nDehumid IntGains Lat = 1159 Btu/hr\n",
               "unit 1 Initial Results (w/o ducts):\nHeat Load = 12455 Btu/hr\nCool Load Sens = 9999 Btu/hr\nCool Load Lat = 679 Btu/hr\nDehumid Load Sens = 756 Btu/hr\nDehumid Load Lat = 829 Btu/hr\nHeat Airflow = 229 cfm\nCool Airflow = 541 cfm\n",
               "unit 1 Final Results:\nHeat Load = 12455 Btu/hr\nHeat Load Ducts = 0 Btu/hr\nCool Load Lat = 679 Btu/hr\nCool Load Sens = 9999 Btu/hr\nCool Load Ducts Lat = 0 Btu/hr\nCool Load Ducts Sens = 0 Btu/hr\nDehumid Load Sens = 756 Btu/hr\nDehumid Load Ducts Lat = 829 Btu/hr\nCool Capacity = 10653 Btu/hr\nCool Capacity Sens = 6924 Btu/hr\nHeat Capacity = 12455 Btu/hr\nHeat Capacity Supp = 0 Btu/hr\nCool Airflow = 311 cfm\nHeat Airflow = 229 cfm\nDehumid WaterRemoval = 0 L/day\n"
            ],
            "step_result" : "Success",
            "step_values" : [
               {
                  "name" : "show_debug_info",
                  "value" : true
               }
            ],
            "step_warnings" : []
         }
      }
   ],
   "updated_at" : "20200130T175921Z"
}
