{
   "completed_at" : "20210429T153010Z",
   "completed_status" : "Success",
   "current_step" : 31,
   "eplusout_err" : "Program Version,EnergyPlus, Version 9.2.0-921312fa1d, YMD=2021.04.29 09:29,\n   ** Warning ** For Schedule:File=\"CLOTHES_DRYER_EXHAUST\", Blank Schedule Type Limits Name input -- will not be validated.\n   ** Warning ** GetSurfaceData: Entered Zone Floor Areas differ from calculated Zone Floor Area(s).\n   **   ~~~   ** ...use Output:Diagnostics,DisplayExtraWarnings; to show more details on individual zones.\n   ************* Note that the following warning(s) may/will occur if you have not enclosed your zone completely.\n   ** Warning ** Entered Zone Volumes differ from calculated zone volume(s).\n   **   ~~~   ** ...use Output:Diagnostics,DisplayExtraWarnings; to show more details on individual zones.\n   ** Warning ** CalculateZoneVolume: 1 zone is not fully enclosed. For more details use:  Output:Diagnostics,DisplayExtrawarnings; \n   ** Warning ** CheckUsedConstructions: There are 1 nominally unused constructions in input.\n   **   ~~~   ** For explicit details on each unused construction, use Output:Diagnostics,DisplayExtraWarnings;\n   ** Warning ** GetDXCoils: Coil:Heating:DX:SingleSpeed=\"RES ASHP HTG COIL\" curve values\n   **   ~~~   ** ... Defrost Energy Input Ratio Function of Temperature Curve Name = DEFROSTEIR output is not equal to 1.0 (+ or - 10%) at rated conditions.\n   **   ~~~   ** ... Curve output at rated conditions = 0.152\n   ** Warning ** The Standard Ratings is calculated for Coil:Cooling:DX:SingleSpeed = RES ASHP CLG COIL but not at the AHRI test condition due to curve out of bound.\n   **   ~~~   **  Review the Standard Ratings calculations in the Engineering Reference for this coil type. Also, use Output:Diagnostics, DisplayExtraWarnings for further guidance.\n   ** Warning ** Check input. Pump nominal power or motor efficiency is set to 0, for pump=PUMP VARIABLE SPEED 1\n   ** Warning ** Output:Meter: invalid Key Name=\"DISTRICTCOOLING:FACILITY\" - not found.\n   ** Warning ** Output:Meter: invalid Key Name=\"DISTRICTHEATING:FACILITY\" - not found.\n   ** Warning ** Output:Meter:MeterFileOnly requested for \"Electricity:Facility\" (TimeStep), already on \"Output:Meter\". Will report to both eplusout.eso and eplusout.mtr\n   ************* Testing Individual Branch Integrity\n   ************* All Branches passed integrity testing\n   ************* Testing Individual Supply Air Path Integrity\n   ************* All Supply Air Paths passed integrity testing\n   ************* Testing Individual Return Air Path Integrity\n   ************* All Return Air Paths passed integrity testing\n   ************* No node connection errors were found.\n   ************* Beginning Simulation\n   ** Warning ** Processing Monthly Tabular Reports: Variable names not valid for this simulation\n   **   ~~~   ** ...use Output:Diagnostics,DisplayExtraWarnings; to show more details on individual variables.\n   ** Warning ** SimHVAC: Maximum iterations (20) exceeded for all HVAC loops, at RUN PERIOD 1, 01/05 12:00 - 12:05\n   **   ~~~   ** The solution for one or more of the Air Loop HVAC systems did not appear to converge\n   **   ~~~   ** ...use Output:Diagnostics,DisplayExtraWarnings; to show more details on each max iteration exceeded.\n   ** Warning ** SimHVAC: Maximum iterations (20) exceeded for all HVAC loops, at RUN PERIOD 1, 03/10 19:33 - 19:37\n   **   ~~~   ** The solution for one or more of the Air Loop HVAC systems did not appear to converge\n   ** Warning ** SimHVAC: Maximum iterations (20) exceeded for all HVAC loops, at RUN PERIOD 1, 03/25 10:40 - 10:43\n   **   ~~~   ** The solution for one or more of the Air Loop HVAC systems did not appear to converge\n   ** Warning ** SimHVAC: Maximum iterations (20) exceeded for all HVAC loops, at RUN PERIOD 1, 03/25 10:47 - 10:50\n   **   ~~~   ** The solution for one or more of the Air Loop HVAC systems did not appear to converge\n   ** Warning ** SimHVAC: Maximum iterations (20) exceeded for all HVAC loops, at RUN PERIOD 1, 03/25 10:55 - 11:00\n   **   ~~~   ** The solution for one or more of the Air Loop HVAC systems did not appear to converge\n   ** Warning ** SimHVAC: Maximum iterations (20) exceeded for all HVAC loops, at RUN PERIOD 1, 03/26 11:35 - 11:40\n   **   ~~~   ** The solution for one or more of the Air Loop HVAC systems did not appear to converge\n   ** Warning ** SimHVAC: Maximum iterations (20) exceeded for all HVAC loops, at RUN PERIOD 1, 03/31 20:23 - 20:27\n   **   ~~~   ** The solution for one or more of the Air Loop HVAC systems did not appear to converge\n   ** Warning ** SimHVAC: Maximum iterations (20) exceeded for all HVAC loops, at RUN PERIOD 1, 04/06 13:20 - 13:30\n   **   ~~~   ** The solution for one or more of the Air Loop HVAC systems did not appear to converge\n   ** Warning ** GetCurrentScheduleValue: Schedule=\"LIGHTING_EXTERIOR\" is a Schedule:File\n   **   ~~~   ** ...Use of Schedule:File when DaylightSavingTime is in effect is not recommended.\n   **   ~~~   ** ...1) Remove RunperiodControl:DaylightSavingTime object or remove DST period from Weather File.\n   **   ~~~   ** ...2) Configure other schedules and Schedule:File to account for occupant behavior during DST.\n   **   ~~~   ** ...   If you have already done this, you can ignore this message.\n   **   ~~~   ** ...When active, DaylightSavingTime will shift all scheduled items by one hour, retaining the same day type as the original.\n   ** Warning ** SimHVAC: Maximum iterations (20) exceeded for all HVAC loops, at RUN PERIOD 1, 04/08 12:20 - 12:30\n   **   ~~~   ** The solution for one or more of the Air Loop HVAC systems did not appear to converge\n   ** Warning ** SimHVAC: Maximum iterations (20) exceeded for all HVAC loops, at RUN PERIOD 1, 04/08 12:25 - 12:30\n   **   ~~~   ** The solution for one or more of the Air Loop HVAC systems did not appear to converge\n   ** Warning ** SimHVAC: Maximum iterations (20) exceeded for all HVAC loops, at RUN PERIOD 1, 04/12 12:00 - 12:10\n   **   ~~~   ** The solution for one or more of the Air Loop HVAC systems did not appear to converge\n   ** Warning ** SimHVAC: Maximum iterations (20) exceeded for all HVAC loops, at RUN PERIOD 1, 04/13 12:25 - 12:30\n   **   ~~~   ** The solution for one or more of the Air Loop HVAC systems did not appear to converge\n   ** Warning ** SimHVAC: Maximum iterations (20) exceeded for all HVAC loops, at RUN PERIOD 1, 04/19 10:43 - 10:47\n   **   ~~~   ** The solution for one or more of the Air Loop HVAC systems did not appear to converge\n   ** Warning ** SimHVAC: Maximum iterations (20) exceeded for all HVAC loops, at RUN PERIOD 1, 05/03 18:50 - 19:00\n   **   ~~~   ** The solution for one or more of the Air Loop HVAC systems did not appear to converge\n   ** Warning ** CalcDoe2DXCoil: Coil:Cooling:DX:SingleSpeed=\"RES ASHP CLG COIL\" - Air volume flow rate per watt of rated total cooling capacity is out of range at 6.797E-005 m3/s/W.\n   **   ~~~   **  Environment=RUN PERIOD 1, at Simulation time=05/08 15:30 - 15:40\n   **   ~~~   ** Expected range for VolumeFlowPerRatedTotalCapacity=[2.684E-005--6.713E-005]\n   **   ~~~   ** Possible causes include inconsistent air flow rates in system components,\n   **   ~~~   ** or variable air volume [VAV] system using incorrect coil type.\n   ** Warning ** The resource referenced by LifeCycleCost:UsePriceEscalation= \"U.S. AVG  COMMERCIAL-ELECTRICITY\" has no energy cost. \n   **   ~~~   ** ... It is likely that the wrong resource is used. The resource should match the meter used in Utility:Tariff.\n   ** Warning ** The resource referenced by LifeCycleCost:UsePriceEscalation= \"U.S. AVG  COMMERCIAL-DISTILLATE OIL\" has no energy cost. \n   **   ~~~   ** ... It is likely that the wrong resource is used. The resource should match the meter used in Utility:Tariff.\n   ** Warning ** The resource referenced by LifeCycleCost:UsePriceEscalation= \"U.S. AVG  COMMERCIAL-RESIDUAL OIL\" has no energy cost. \n   **   ~~~   ** ... It is likely that the wrong resource is used. The resource should match the meter used in Utility:Tariff.\n   ** Warning ** The resource referenced by LifeCycleCost:UsePriceEscalation= \"U.S. AVG  COMMERCIAL-NATURAL GAS\" has no energy cost. \n   **   ~~~   ** ... It is likely that the wrong resource is used. The resource should match the meter used in Utility:Tariff.\n   ** Warning ** The resource referenced by LifeCycleCost:UsePriceEscalation= \"U.S. AVG  COMMERCIAL-COAL\" has no energy cost. \n   **   ~~~   ** ... It is likely that the wrong resource is used. The resource should match the meter used in Utility:Tariff.\n   ************* Simulation Error Summary *************\n   ************* There are 3 unused schedules in input.\n   ************* There are 45 unused week schedules in input.\n   ************* There are 33 unused day schedules in input.\n   ************* Use Output:Diagnostics,DisplayUnusedSchedules; to see them.\n   *************\n   ************* ===== Recurring Surface Error Summary =====\n   ************* The following surface error messages occurred.\n   *************\n   ************* Base Surface does not surround subsurface errors occuring...\n   ************* Check that the GlobalGeometryRules object is expressing the proper starting corner and direction [CounterClockwise/Clockwise]\n   *************\n   ** Warning ** Base surface does not surround subsurface (CHKSBS), Overlap Status=No-Overlap\n   **   ~~~   **   The base surround errors occurred 1 times.\n   **   ~~~   ** Surface \"SURFACE 18\" misses SubSurface \"UNIT 1 - SURFACE 5 - DOOR\"\n   *************\n   **   ~~~   **   The base surround errors occurred 1 times (total).\n   *************\n   *************\n   ************* ===== Recurring Error Summary =====\n   ************* The following recurring error messages occurred.\n   *************\n   *************  ** Warning ** SimHVAC: Exceeding Maximum iterations for all HVAC loops, during RUN PERIOD 1 continues\n   *************  **   ~~~   **   This error occurred 56 total times;\n   *************  **   ~~~   **   during Warmup 0 times;\n   *************  **   ~~~   **   during Sizing 0 times.\n   *************\n   *************  ** Warning ** CalcDoe2DXCoil: Coil:Cooling:DX:SingleSpeed=\"RES ASHP CLG COIL\" - Air volume flow rate per watt of rated total cooling capacity is out of range error continues...\n   *************  **   ~~~   **   This error occurred 551632 total times;\n   *************  **   ~~~   **   during Warmup 0 times;\n   *************  **   ~~~   **   during Sizing 0 times.\n   *************  **   ~~~   **   Max=7.064629E-005  Min=6.720816E-005\n   *************\n   *************\n   ************* ===== Final Error Summary =====\n   ************* The following error categories occurred.  Consider correcting or noting.\n   ************* Nominally Unused Constructions\n   ************* ..The nominally unused constructions warning is provided to alert you to potential conditions that can cause\n   ************* ..extra time during simulation. Each construction is calculated by the algorithm indicated in the HeatBalanceAlgorithm\n   ************* ..object. You may remove the constructions indicated (when you use the DisplayExtraWarnings option).\n   *************\n   ************* EnergyPlus Warmup Error Summary. During Warmup: 0 Warning; 0 Severe Errors.\n   ************* EnergyPlus Sizing Error Summary. During Sizing: 0 Warning; 0 Severe Errors.\n   ************* EnergyPlus Completed Successfully-- 551721 Warning; 0 Severe Errors; Elapsed Time=00hr 00min 56.54sec\n",
   "file_paths" : [
      "/Users/nmoore/github/resstock/workflows/generated_files",
      "./files",
      "./weather",
      "../../files",
      "../../weather",
      "./"
   ],
   "hash" : "8F86F7B8",
   "measure_paths" : [ "../measures", "../resources/measures" ],
   "started_at" : "20210429T152711Z",
   "steps" : [
      {
         "arguments" : {
            "begin_day_of_month" : "1",
            "begin_month" : "1",
            "calendar_year" : "2007",
            "end_day_of_month" : "31",
            "end_month" : "12",
            "timesteps_per_hr" : "6"
         },
         "measure_dir_name" : "ResidentialSimulationControls",
         "result" : {
            "completed_at" : "20210429T152711Z",
            "measure_class_name" : "ResidentialSimulationControls",
            "measure_display_name" : "Set Residential Simulation Controls",
            "measure_name" : "residential_simulation_controls",
            "measure_taxonomy" : "Whole Building.Space Types",
            "measure_type" : "ModelMeasure",
            "measure_uid" : "874f921e-8f3c-458a-a82f-01b7d51a547e",
            "measure_version_id" : "50490d3c-8385-4b7e-a525-df4147819d03",
            "measure_version_modified" : "20200121T164352Z",
            "measure_xml_checksum" : "2C38F48B",
            "started_at" : "20210429T152711Z",
            "stderr" : "",
            "stdout" : "",
            "step_errors" : [],
            "step_files" : [],
            "step_info" : [
               "Set the simulation timesteps per hour to 6.",
               "Set the run period begin and end month/day to 1/1 and 12/31, respectively.",
               "Set the calendar year to 2007 and the start day of week to Monday; if you are running with AMY, this will be overridden by the AMY year."
            ],
            "step_result" : "Success",
            "step_values" : [
               {
                  "name" : "timesteps_per_hr",
                  "value" : 6
               },
               {
                  "name" : "begin_month",
                  "value" : 1
               },
               {
                  "name" : "begin_day_of_month",
                  "value" : 1
               },
               {
                  "name" : "end_month",
                  "value" : 12
               },
               {
                  "name" : "end_day_of_month",
                  "value" : 31
               },
               {
                  "name" : "calendar_year",
                  "value" : 2007
               }
            ],
            "step_warnings" : []
         }
      },
      {
         "arguments" : {
            "dst_end_date" : "October 26",
            "dst_start_date" : "April 7",
            "weather_directory" : "../HPXMLtoOpenStudio/weather",
            "weather_file_name" : "USA_CO_Denver.Intl.AP.725650_TMY3.epw"
         },
         "measure_dir_name" : "ResidentialLocation",
         "result" : {
            "completed_at" : "20210429T152711Z",
            "measure_class_name" : "SetResidentialEPWFile",
            "measure_display_name" : "Set Residential Location",
            "measure_name" : "set_residential_epw_file",
            "measure_taxonomy" : "Whole Building.Space Types",
            "measure_type" : "ModelMeasure",
            "measure_uid" : "16ac2c0c-6177-4bf2-91a5-1b6e8de4e85b",
            "measure_version_id" : "a01e7394-d961-4d16-bee6-e76b918cda55",
            "measure_version_modified" : "20200515T170007Z",
            "measure_xml_checksum" : "D8922A73",
            "started_at" : "20210429T152711Z",
            "stderr" : "",
            "stdout" : "",
            "step_errors" : [],
            "step_files" : [],
            "step_final_condition" : "The weather file path is '/Users/nmoore/github/resstock/resources/measures/HPXMLtoOpenStudio/weather/USA_CO_Denver.Intl.AP.725650_TMY3.epw'.",
            "step_info" : [
               "Setting weather file.",
               "Setting site data.",
               "Setting Building America climate zone to Cold.",
               "Setting mains water temperature profile.",
               "Set daylight saving time from 2007-Apr-07 to 2007-Oct-26."
            ],
            "step_result" : "Success",
            "step_values" : [
               {
                  "name" : "weather_directory",
                  "value" : "../HPXMLtoOpenStudio/weather"
               },
               {
                  "name" : "weather_file_name",
                  "value" : "USA_CO_Denver.Intl.AP.725650_TMY3.epw"
               },
               {
                  "name" : "dst_start_date",
                  "value" : "April 7"
               },
               {
                  "name" : "dst_end_date",
                  "value" : "October 26"
               }
            ],
            "step_warnings" : []
         }
      },
      {
         "arguments" : {
            "num_occupants" : "2",
            "state" : "CO",
            "vacancy_end_date" : "NA",
            "vacancy_start_date" : "NA"
         },
         "measure_dir_name" : "ResidentialScheduleGenerator",
         "result" : {
            "completed_at" : "20210429T152745Z",
            "measure_class_name" : "ResidentialScheduleGenerator",
            "measure_display_name" : "Generate Appliance schedules",
            "measure_name" : "residential_schedule_generator",
            "measure_taxonomy" : "People.People Schedules",
            "measure_type" : "ModelMeasure",
            "measure_uid" : "079880ce-1837-4d67-ba8d-65c595160d3d",
            "measure_version_id" : "052f56bf-5a5e-488c-a727-76265e374a13",
            "measure_version_modified" : "20200515T170008Z",
            "measure_xml_checksum" : "3C1C8C0F",
            "started_at" : "20210429T152713Z",
            "stderr" : "",
            "stdout" : "",
            "step_errors" : [],
            "step_files" : [],
            "step_info" : [
               "No vacancy period set.",
               "Generated schedule file: /Users/nmoore/github/resstock/workflows/run/schedules.csv"
            ],
            "step_result" : "Success",
            "step_values" : [
               {
                  "name" : "num_occupants",
                  "value" : 2
               },
               {
                  "name" : "state",
                  "value" : "CO"
               },
               {
                  "name" : "vacancy_start_date",
                  "value" : "NA"
               },
               {
                  "name" : "vacancy_end_date",
                  "value" : "NA"
               }
            ],
            "step_warnings" : [
               "Unable to retrieve the Building ID (seed for schedule generator); setting it to 1."
            ]
         }
      },
      {
         "arguments" : {
            "aspect_ratio" : "2",
            "attic_type" : "unfinished attic",
            "eaves_depth" : "2",
            "foundation_height" : "3",
            "foundation_type" : "slab",
            "garage_depth" : "20",
            "garage_position" : "Right",
            "garage_protrusion" : "0",
            "garage_width" : "0",
            "neighbor_back_offset" : "0",
            "neighbor_front_offset" : "0",
            "neighbor_left_offset" : "10",
            "neighbor_right_offset" : "10",
            "num_bathrooms" : "2",
            "num_bedrooms" : "3",
            "num_floors" : "2",
            "orientation" : "180",
            "roof_pitch" : "6:12",
            "roof_structure" : "truss, cantilever",
            "roof_type" : "gable",
            "total_ffa" : "2000",
            "wall_height" : "8"
         },
         "measure_dir_name" : "ResidentialGeometryCreateSingleFamilyDetached",
         "result" : {
            "completed_at" : "20210429T152746Z",
            "measure_class_name" : "CreateResidentialSingleFamilyDetachedGeometry",
            "measure_display_name" : "Create Residential Single-Family Detached Geometry",
            "measure_name" : "create_residential_single_family_detached_geometry",
            "measure_taxonomy" : "Envelope.Form",
            "measure_type" : "ModelMeasure",
            "measure_uid" : "a1248ef4-c1ef-46ed-a9ea-4d8fbf719b6f",
            "measure_version_id" : "79aefcec-39fa-4dd8-8f32-bfe7188576b9",
            "measure_version_modified" : "20210121T185147Z",
            "measure_xml_checksum" : "2AF3A68E",
            "started_at" : "20210429T152745Z",
            "stderr" : "",
            "stdout" : "",
            "step_errors" : [],
            "step_files" : [],
            "step_final_condition" : "The building finished with 3 spaces.",
            "step_info" : [
               "Set living space.",
               "Set living space|story 2.",
               "Set unfinished attic space.",
               "The building has been assigned 3 bedroom(s) and 2.0 bathroom(s) across 1 unit(s).",
               "unit 1 has been assigned 1.0 occupant(s) for space 'living space|story 2'.",
               "unit 1 has been assigned 1.0 occupant(s) for space 'living space'.",
               "The building has been assigned 2.0 occupant(s) across 1 unit(s).",
               "Added 6 res eaves.",
               "Added 2 res neighbors shading surfaces.",
               "The building's initial orientation was 0.0 azimuth.",
               "The building's final orientation was 180.0 azimuth."
            ],
            "step_initial_condition" : "The building started with 0 spaces.",
            "step_result" : "Success",
            "step_values" : [
               {
                  "name" : "total_ffa",
                  "value" : 2000
               },
               {
                  "name" : "wall_height",
                  "value" : 8
               },
               {
                  "name" : "num_floors",
                  "value" : 2
               },
               {
                  "name" : "aspect_ratio",
                  "value" : 2
               },
               {
                  "name" : "garage_width",
                  "value" : 0
               },
               {
                  "name" : "garage_depth",
                  "value" : 20
               },
               {
                  "name" : "garage_protrusion",
                  "value" : 0
               },
               {
                  "name" : "garage_position",
                  "value" : "Right"
               },
               {
                  "name" : "foundation_type",
                  "value" : "slab"
               },
               {
                  "name" : "foundation_height",
                  "value" : 3
               },
               {
                  "name" : "attic_type",
                  "value" : "unfinished attic"
               },
               {
                  "name" : "roof_type",
                  "value" : "gable"
               },
               {
                  "name" : "roof_pitch",
                  "value" : "6:12"
               },
               {
                  "name" : "roof_structure",
                  "value" : "truss, cantilever"
               },
               {
                  "name" : "eaves_depth",
                  "value" : 2
               },
               {
                  "name" : "num_bedrooms",
                  "value" : "3"
               },
               {
                  "name" : "num_bathrooms",
                  "value" : "2"
               },
               {
                  "name" : "neighbor_left_offset",
                  "value" : 10
               },
               {
                  "name" : "neighbor_right_offset",
                  "value" : 10
               },
               {
                  "name" : "neighbor_back_offset",
                  "value" : 0
               },
               {
                  "name" : "neighbor_front_offset",
                  "value" : 0
               },
               {
                  "name" : "orientation",
                  "value" : 180
               }
            ],
            "step_warnings" : []
         }
      },
      {
         "arguments" : {
            "door_area" : "20"
         },
         "measure_dir_name" : "ResidentialGeometryDoorArea",
         "result" : {
            "completed_at" : "20210429T152746Z",
            "measure_class_name" : "CreateResidentialDoorArea",
            "measure_display_name" : "Set Residential Door Area",
            "measure_name" : "create_residential_door_area",
            "measure_taxonomy" : "Envelope.Fenestration",
            "measure_type" : "ModelMeasure",
            "measure_uid" : "901a04ee-99d4-42b3-91e1-b5b97970f441",
            "measure_version_id" : "84151180-e119-49a1-8696-640cf29feeaf",
            "measure_version_modified" : "20200324T183313Z",
            "measure_xml_checksum" : "9C8A26EB",
            "started_at" : "20210429T152746Z",
            "stderr" : "",
            "stdout" : "",
            "step_errors" : [],
            "step_files" : [],
            "step_final_condition" : "The building has been assigned 20.0 ft^2 total door area.",
            "step_info" : [ "For unit 1 added 20.0 ft^2 door." ],
            "step_result" : "Success",
            "step_values" : [
               {
                  "name" : "door_area",
                  "value" : 20
               }
            ],
            "step_warnings" : []
         }
      },
      {
         "arguments" : {
            "back_skylight_area" : "0",
            "back_window_area" : "0",
            "back_wwr" : "0.18",
            "front_skylight_area" : "0",
            "front_window_area" : "0",
            "front_wwr" : "0.18",
            "left_skylight_area" : "0",
            "left_window_area" : "0",
            "left_wwr" : "0.18",
            "overhang_back_facade" : "true",
            "overhang_depth" : "2",
            "overhang_front_facade" : "true",
            "overhang_left_facade" : "true",
            "overhang_offset" : "0.5",
            "overhang_right_facade" : "true",
            "right_skylight_area" : "0",
            "right_window_area" : "0",
            "right_wwr" : "0.18",
            "window_aspect_ratio" : "1.333"
         },
         "measure_dir_name" : "ResidentialGeometryWindowSkylightArea",
         "result" : {
            "completed_at" : "20210429T152747Z",
            "measure_class_name" : "SetResidentialWindowSkylightArea",
            "measure_display_name" : "Set Residential Window/Skylight Area",
            "measure_name" : "set_residential_window_skylight_area",
            "measure_taxonomy" : "Envelope.Fenestration",
            "measure_type" : "ModelMeasure",
            "measure_uid" : "d05f5b32-1ad6-4c3d-964a-0dbd49a7fde8",
            "measure_version_id" : "a1eb3c31-242d-401f-b949-431794f72bcd",
            "measure_version_modified" : "20201022T185952Z",
            "measure_xml_checksum" : "9014E219",
            "started_at" : "20210429T152747Z",
            "stderr" : "",
            "stdout" : "",
            "step_errors" : [],
            "step_files" : [],
            "step_final_condition" : "The building has been assigned 382.0 ft^2 total window area, and 0.0 ft^2 total skylight area.",
            "step_info" : [
               "Added 6 window(s), totaling 64.7 ft^2, to Surface 11.",
               "Added 5 window(s), totaling 59.7 ft^2, to Surface 5.",
               "Added 6 window(s), totaling 64.4 ft^2, to Surface 9.",
               "Added 6 window(s), totaling 64.4 ft^2, to Surface 3.",
               "Added 3 window(s), totaling 32.2 ft^2, to Surface 8.",
               "Added 3 window(s), totaling 32.2 ft^2, to Surface 2.",
               "Added 3 window(s), totaling 32.2 ft^2, to Surface 10.",
               "Added 3 window(s), totaling 32.2 ft^2, to Surface 4.",
               "Added 35 res overhangs."
            ],
            "step_result" : "Success",
            "step_values" : [
               {
                  "name" : "front_wwr",
                  "value" : 0.17999999999999999
               },
               {
                  "name" : "back_wwr",
                  "value" : 0.17999999999999999
               },
               {
                  "name" : "left_wwr",
                  "value" : 0.17999999999999999
               },
               {
                  "name" : "right_wwr",
                  "value" : 0.17999999999999999
               },
               {
                  "name" : "front_window_area",
                  "value" : 0
               },
               {
                  "name" : "back_window_area",
                  "value" : 0
               },
               {
                  "name" : "left_window_area",
                  "value" : 0
               },
               {
                  "name" : "right_window_area",
                  "value" : 0
               },
               {
                  "name" : "window_aspect_ratio",
                  "value" : 1.333
               },
               {
                  "name" : "overhang_depth",
                  "value" : 2
               },
               {
                  "name" : "overhang_offset",
                  "value" : 0.5
               },
               {
                  "name" : "overhang_front_facade",
                  "value" : true
               },
               {
                  "name" : "overhang_back_facade",
                  "value" : true
               },
               {
                  "name" : "overhang_left_facade",
                  "value" : true
               },
               {
                  "name" : "overhang_right_facade",
                  "value" : true
               },
               {
                  "name" : "front_skylight_area",
                  "value" : 0
               },
               {
                  "name" : "back_skylight_area",
                  "value" : 0
               },
               {
                  "name" : "left_skylight_area",
                  "value" : 0
               },
               {
                  "name" : "right_skylight_area",
                  "value" : 0
               }
            ],
            "step_warnings" : []
         }
      },
      {
         "arguments" : {
            "ceiling_drywall_thick_in" : "0.5",
            "ceiling_framing_factor" : "0.07",
            "ceiling_ins_thick_in" : "8.55",
            "ceiling_install_grade" : "1",
            "ceiling_joist_height_in" : "3.5",
            "ceiling_r" : "30",
            "has_radiant_barrier" : "false",
            "roof_cavity_ins_thick_in" : "0",
            "roof_cavity_r" : "0",
            "roof_framing_factor" : "0.07",
            "roof_framing_thick_in" : "7.25",
            "roof_install_grade" : "1",
            "roof_osb_thick_in" : "0.75",
            "roof_rigid_r" : "0",
            "roofing_material" : "Asphalt Shingles, Medium"
         },
         "measure_dir_name" : "ResidentialConstructionsUnfinishedAttic",
         "result" : {
            "completed_at" : "20210429T152747Z",
            "measure_class_name" : "ProcessConstructionsUnfinishedAttic",
            "measure_display_name" : "Set Residential Unfinished Attic Constructions",
            "measure_name" : "process_constructions_unfinished_attic",
            "measure_taxonomy" : "Envelope.Opaque",
            "measure_type" : "ModelMeasure",
            "measure_uid" : "235ba3ce-dd83-4287-aa0e-435dc1cbf1a7",
            "measure_version_id" : "eb73458b-0464-4c32-bcc0-aae1f5d9905b",
            "measure_version_modified" : "20201222T225518Z",
            "measure_xml_checksum" : "1E963D9C",
            "started_at" : "20210429T152747Z",
            "stderr" : "",
            "stdout" : "",
            "step_errors" : [],
            "step_files" : [],
            "step_info" : [
               "Material 'Drywall 0.5 in.' was created.",
               "Material 'FloorUATrussandIns' was created.",
               "Material 'FloorUAAdditionalCeilingIns' was created.",
               "Construction 'FloorFinInsUnfinAttic' was created with 3 materials (Drywall 0.5 in. | FloorUATrussandIns | FloorUAAdditionalCeilingIns).",
               "Surface 'Surface 13' has been assigned construction 'FloorFinInsUnfinAttic'.",
               "Construction 'FloorFinInsUnfinAttic Reversed' was created with 3 materials (FloorUAAdditionalCeilingIns | FloorUATrussandIns | Drywall 0.5 in.).",
               "Surface 'Surface 12' has been assigned construction 'FloorFinInsUnfinAttic Reversed'.",
               "Material 'Asphalt Shingles, Medium' was created.",
               "Material 'RoofSheathing' was created.",
               "Material 'RoofUARoofIns' was created.",
               "Construction 'RoofUnfinInsExt' was created with 3 materials (Asphalt Shingles, Medium | RoofSheathing | RoofUARoofIns).",
               "Surface 'Surface 15' has been assigned construction 'RoofUnfinInsExt'.",
               "Surface 'Surface 14' has been assigned construction 'RoofUnfinInsExt'."
            ],
            "step_result" : "Success",
            "step_values" : [
               {
                  "name" : "ceiling_r",
                  "value" : 30
               },
               {
                  "name" : "ceiling_install_grade",
                  "value" : "1"
               },
               {
                  "name" : "ceiling_ins_thick_in",
                  "value" : 8.5500000000000007
               },
               {
                  "name" : "ceiling_framing_factor",
                  "value" : 0.070000000000000007
               },
               {
                  "name" : "ceiling_joist_height_in",
                  "value" : 3.5
               },
               {
                  "name" : "ceiling_drywall_thick_in",
                  "value" : 0.5
               },
               {
                  "name" : "roof_cavity_r",
                  "value" : 0
               },
               {
                  "name" : "roof_install_grade",
                  "value" : "1"
               },
               {
                  "name" : "roof_cavity_ins_thick_in",
                  "value" : 0
               },
               {
                  "name" : "roof_framing_factor",
                  "value" : 0.070000000000000007
               },
               {
                  "name" : "roof_framing_thick_in",
                  "value" : 7.25
               },
               {
                  "name" : "roof_osb_thick_in",
                  "value" : 0.75
               },
               {
                  "name" : "roof_rigid_r",
                  "value" : 0
               },
               {
                  "name" : "roofing_material",
                  "value" : "Asphalt Shingles, Medium"
               },
               {
                  "name" : "has_radiant_barrier",
                  "value" : false
               }
            ],
            "step_warnings" : []
         }
      },
      {
         "arguments" : {
            "cavity_depth_in" : "3.5",
            "cavity_filled" : "true",
            "cavity_r" : "13",
            "drywall_thick_in" : "0.5",
            "exterior_finish" : "Vinyl, Light",
            "framing_factor" : "0.25",
            "install_grade" : "1",
            "osb_thick_in" : "0.5",
            "rigid_r" : "0"
         },
         "measure_dir_name" : "ResidentialConstructionsWallsWoodStud",
         "result" : {
            "completed_at" : "20210429T152747Z",
            "measure_class_name" : "ProcessConstructionsWallsWoodStud",
            "measure_display_name" : "Set Residential Walls - Wood Stud Construction",
            "measure_name" : "process_constructions_walls_wood_stud",
            "measure_taxonomy" : "Envelope.Opaque",
            "measure_type" : "ModelMeasure",
            "measure_uid" : "76193c5c-d1a6-4a57-864a-c8a32e67adcb",
            "measure_version_id" : "80ff6c38-b121-4008-976e-6804f8fcfc17",
            "measure_version_modified" : "20201211T192506Z",
            "measure_xml_checksum" : "1E963D9C",
            "started_at" : "20210429T152747Z",
            "stderr" : "",
            "stdout" : "",
            "step_errors" : [],
            "step_files" : [],
            "step_info" : [
               "Material 'Vinyl, Light' was created.",
               "Material 'WallSheathing' was created.",
               "Material 'WallStudAndCavity' was created.",
               "Construction 'WallExtInsFin' was created with 4 materials (Vinyl, Light | WallSheathing | WallStudAndCavity | Drywall 0.5 in.).",
               "Surface 'Surface 9' has been assigned construction 'WallExtInsFin'.",
               "Surface 'Surface 10' has been assigned construction 'WallExtInsFin'.",
               "Surface 'Surface 11' has been assigned construction 'WallExtInsFin'.",
               "Surface 'Surface 8' has been assigned construction 'WallExtInsFin'.",
               "Surface 'Surface 2' has been assigned construction 'WallExtInsFin'.",
               "Surface 'Surface 19' has been assigned construction 'WallExtInsFin'.",
               "Surface 'Surface 18' has been assigned construction 'WallExtInsFin'.",
               "Surface 'Surface 3' has been assigned construction 'WallExtInsFin'.",
               "Surface 'Surface 5' has been assigned construction 'WallExtInsFin'.",
               "Surface 'Surface 4' has been assigned construction 'WallExtInsFin'.",
               "Material 'WallStudAndCavity 1' was created.",
               "Construction 'WallExtUninsUnfin' was created with 3 materials (Vinyl, Light | WallSheathing | WallStudAndCavity 1).",
               "Surface 'Surface 17' has been assigned construction 'WallExtUninsUnfin'.",
               "Surface 'Surface 16' has been assigned construction 'WallExtUninsUnfin'.",
               "Added internal mass object 'living space|story 2 Partition' to space 'living space|story 2'",
               "Added internal mass object 'living space Partition' to space 'living space'",
               "Material 'WallStudAndCavity 2' was created.",
               "Construction 'WallIntFinUninsFin' was created with 2 materials (WallStudAndCavity 2 | Drywall 0.5 in.).",
               "InternalMassDefinition 'living space|story 2 Partition' has been assigned construction 'WallIntFinUninsFin'.",
               "InternalMassDefinition 'living space Partition' has been assigned construction 'WallIntFinUninsFin'.",
               "Material 'res furniture material living space|story 2' was created.",
               "Construction 'res furniture construction living space|story 2' was created with 1 material (res furniture material living space|story 2).",
               "InternalMassDefinition 'res furniture mass living space|story 2' has been assigned construction 'res furniture construction living space|story 2'.",
               "Assigned internal mass object 'res furniture mass living space|story 2' to space 'living space|story 2'.",
               "Construction 'res furniture construction living space' was created with 1 material (res furniture material living space|story 2).",
               "InternalMassDefinition 'res furniture mass living space' has been assigned construction 'res furniture construction living space'.",
               "Assigned internal mass object 'res furniture mass living space' to space 'living space'."
            ],
            "step_result" : "Success",
            "step_values" : [
               {
                  "name" : "cavity_r",
                  "value" : 13
               },
               {
                  "name" : "install_grade",
                  "value" : "1"
               },
               {
                  "name" : "cavity_depth_in",
                  "value" : 3.5
               },
               {
                  "name" : "cavity_filled",
                  "value" : true
               },
               {
                  "name" : "framing_factor",
                  "value" : 0.25
               },
               {
                  "name" : "drywall_thick_in",
                  "value" : 0.5
               },
               {
                  "name" : "osb_thick_in",
                  "value" : 0.5
               },
               {
                  "name" : "rigid_r",
                  "value" : 0
               },
               {
                  "name" : "exterior_finish",
                  "value" : "Vinyl, Light"
               }
            ],
            "step_warnings" : []
         }
      },
      {
         "arguments" : {
            "exterior_depth" : "0",
            "exterior_r" : "0",
            "gap_r" : "0",
            "perimeter_r" : "0",
            "perimeter_width" : "0",
            "whole_r" : "0"
         },
         "measure_dir_name" : "ResidentialConstructionsSlab",
         "result" : {
            "completed_at" : "20210429T152747Z",
            "measure_class_name" : "ProcessConstructionsSlab",
            "measure_display_name" : "Set Residential Slab Construction",
            "measure_name" : "process_constructions_slab",
            "measure_taxonomy" : "Envelope.Opaque",
            "measure_type" : "ModelMeasure",
            "measure_uid" : "4fd36916-5b69-43d2-a7bb-e7fad34508db",
            "measure_version_id" : "216a74f1-6ee9-4cdc-9184-4506ded2fdb2",
            "measure_version_modified" : "20210205T210702Z",
            "measure_xml_checksum" : "1E963D9C",
            "started_at" : "20210429T152747Z",
            "stderr" : "",
            "stdout" : "",
            "step_errors" : [],
            "step_files" : [],
            "step_info" : [
               "Material 'Concrete 4.0 in.' was created.",
               "Material 'Floor Covering' was created.",
               "Construction 'FloorFndGrndFinSlab' was created with 2 materials (Concrete 4.0 in. | Floor Covering).",
               "Surface 'Surface 1' has been assigned construction 'FloorFndGrndFinSlab'."
            ],
            "step_result" : "Success",
            "step_values" : [
               {
                  "name" : "perimeter_r",
                  "value" : 0
               },
               {
                  "name" : "perimeter_width",
                  "value" : 0
               },
               {
                  "name" : "whole_r",
                  "value" : 0
               },
               {
                  "name" : "gap_r",
                  "value" : 0
               },
               {
                  "name" : "exterior_r",
                  "value" : 0
               },
               {
                  "name" : "exterior_depth",
                  "value" : 0
               }
            ],
            "step_warnings" : []
         }
      },
      {
         "arguments" : {
            "cavity_r" : "19",
            "framing_factor" : "0.13",
            "install_grade" : "1",
            "joist_height_in" : "5.5"
         },
         "measure_dir_name" : "ResidentialConstructionsFloors",
         "result" : {
            "completed_at" : "20210429T152747Z",
            "measure_class_name" : "ProcessConstructionsFloors",
            "measure_display_name" : "Set Residential Floor Construction",
            "measure_name" : "process_constructions_floors",
            "measure_taxonomy" : "Envelope.Opaque",
            "measure_type" : "ModelMeasure",
            "measure_uid" : "65e577ab-327e-4afa-af30-0f6b4e6b1ebf",
            "measure_version_id" : "54db01d7-8cb4-4d3c-bcff-f911ef246735",
            "measure_version_modified" : "20190701T173017Z",
            "measure_xml_checksum" : "1E963D9C",
            "started_at" : "20210429T152747Z",
            "stderr" : "",
            "stdout" : "",
            "step_errors" : [],
            "step_files" : [],
            "step_info" : [
               "Material 'FloorFinStudAndAirFloor' was created.",
               "Material 'Wood Floor' was created.",
               "Construction 'FloorFinUninsFin' was created with 5 materials (Drywall 0.5 in. | FloorFinStudAndAirFloor | RoofSheathing | Wood Floor | Floor Covering).",
               "Surface 'Surface 7' has been assigned construction 'FloorFinUninsFin'.",
               "Construction 'FloorFinUninsFin Reversed' was created with 5 materials (Floor Covering | Wood Floor | RoofSheathing | FloorFinStudAndAirFloor | Drywall 0.5 in.).",
               "Surface 'Surface 6' has been assigned construction 'FloorFinUninsFin Reversed'."
            ],
            "step_result" : "Success",
            "step_values" : [
               {
                  "name" : "cavity_r",
                  "value" : 19
               },
               {
                  "name" : "install_grade",
                  "value" : "1"
               },
               {
                  "name" : "framing_factor",
                  "value" : 0.13
               },
               {
                  "name" : "joist_height_in",
                  "value" : 5.5
               }
            ],
            "step_warnings" : []
         }
      },
      {
         "arguments" : {
            "skylight_cool_shade_mult" : "1",
            "skylight_heat_shade_mult" : "1",
            "skylight_shgc" : "0.45",
            "skylight_ufactor" : "0.33",
            "window_cool_shade_mult" : "0.7",
            "window_heat_shade_mult" : "0.7",
            "window_shgc" : "0.3",
            "window_ufactor" : "0.37"
         },
         "measure_dir_name" : "ResidentialConstructionsWindowsSkylights",
         "result" : {
            "completed_at" : "20210429T152748Z",
            "measure_class_name" : "ProcessConstructionsWindowsSkylights",
            "measure_display_name" : "Set Residential Window/Skylight Construction",
            "measure_name" : "process_constructions_windows_skylights",
            "measure_taxonomy" : "Envelope.Fenestration",
            "measure_type" : "ModelMeasure",
            "measure_uid" : "648dc42f-f079-4d97-913e-6dc3e19560b1",
            "measure_version_id" : "e794f109-ad20-4bcc-8ff1-492a565d7a4a",
            "measure_version_modified" : "20200324T183312Z",
            "measure_xml_checksum" : "6FAFA9DE",
            "started_at" : "20210429T152748Z",
            "stderr" : "",
            "stdout" : "",
            "step_errors" : [],
            "step_files" : [],
            "step_final_condition" : "All windows and skylights have been assigned constructions.",
            "step_info" : [
               "Material 'WindowMaterial' was created.",
               "Construction 'WindowConstruction' was created with 1 material (WindowMaterial).",
               "SubSurface 'Surface 4 - Window 2' has been assigned construction 'WindowConstruction'.",
               "SubSurface 'Surface 10 - Window 3' has been assigned construction 'WindowConstruction'.",
               "SubSurface 'Surface 10 - Window 2' has been assigned construction 'WindowConstruction'.",
               "SubSurface 'Surface 10 - Window 1' has been assigned construction 'WindowConstruction'.",
               "SubSurface 'Surface 2 - Window 3' has been assigned construction 'WindowConstruction'.",
               "SubSurface 'Surface 2 - Window 1' has been assigned construction 'WindowConstruction'.",
               "SubSurface 'Surface 8 - Window 2' has been assigned construction 'WindowConstruction'.",
               "SubSurface 'Surface 11 - Window 4' has been assigned construction 'WindowConstruction'.",
               "SubSurface 'Surface 3 - Window 5' has been assigned construction 'WindowConstruction'.",
               "SubSurface 'Surface 3 - Window 3' has been assigned construction 'WindowConstruction'.",
               "SubSurface 'Surface 9 - Window 6' has been assigned construction 'WindowConstruction'.",
               "SubSurface 'Surface 3 - Window 1' has been assigned construction 'WindowConstruction'.",
               "SubSurface 'Surface 9 - Window 4' has been assigned construction 'WindowConstruction'.",
               "SubSurface 'Surface 3 - Window 6' has been assigned construction 'WindowConstruction'.",
               "SubSurface 'Surface 11 - Window 1' has been assigned construction 'WindowConstruction'.",
               "SubSurface 'Surface 3 - Window 4' has been assigned construction 'WindowConstruction'.",
               "SubSurface 'Surface 4 - Window 3' has been assigned construction 'WindowConstruction'.",
               "SubSurface 'Surface 9 - Window 3' has been assigned construction 'WindowConstruction'.",
               "SubSurface 'Surface 9 - Window 2' has been assigned construction 'WindowConstruction'.",
               "SubSurface 'Surface 5 - Window 5' has been assigned construction 'WindowConstruction'.",
               "SubSurface 'Surface 8 - Window 1' has been assigned construction 'WindowConstruction'.",
               "SubSurface 'Surface 9 - Window 1' has been assigned construction 'WindowConstruction'.",
               "SubSurface 'Surface 11 - Window 5' has been assigned construction 'WindowConstruction'.",
               "SubSurface 'Surface 5 - Window 2' has been assigned construction 'WindowConstruction'.",
               "SubSurface 'Surface 5 - Window 4' has been assigned construction 'WindowConstruction'.",
               "SubSurface 'Surface 2 - Window 2' has been assigned construction 'WindowConstruction'.",
               "SubSurface 'Surface 8 - Window 3' has been assigned construction 'WindowConstruction'.",
               "SubSurface 'Surface 11 - Window 2' has been assigned construction 'WindowConstruction'.",
               "SubSurface 'Surface 9 - Window 5' has been assigned construction 'WindowConstruction'.",
               "SubSurface 'Surface 5 - Window 1' has been assigned construction 'WindowConstruction'.",
               "SubSurface 'Surface 11 - Window 3' has been assigned construction 'WindowConstruction'.",
               "SubSurface 'Surface 11 - Window 6' has been assigned construction 'WindowConstruction'.",
               "SubSurface 'Surface 4 - Window 1' has been assigned construction 'WindowConstruction'.",
               "SubSurface 'Surface 5 - Window 3' has been assigned construction 'WindowConstruction'.",
               "SubSurface 'Surface 3 - Window 2' has been assigned construction 'WindowConstruction'.",
               "Construction and interior shades added to 35 window(s)."
            ],
            "step_result" : "Success",
            "step_values" : [
               {
                  "name" : "window_ufactor",
                  "value" : 0.37
               },
               {
                  "name" : "window_shgc",
                  "value" : 0.29999999999999999
               },
               {
                  "name" : "window_heat_shade_mult",
                  "value" : 0.69999999999999996
               },
               {
                  "name" : "window_cool_shade_mult",
                  "value" : 0.69999999999999996
               },
               {
                  "name" : "skylight_ufactor",
                  "value" : 0.33000000000000002
               },
               {
                  "name" : "skylight_shgc",
                  "value" : 0.45000000000000001
               },
               {
                  "name" : "skylight_heat_shade_mult",
                  "value" : 1
               },
               {
                  "name" : "skylight_cool_shade_mult",
                  "value" : 1
               }
            ],
            "step_warnings" : []
         }
      },
      {
         "arguments" : {
            "ufactor" : "0.2"
         },
         "measure_dir_name" : "ResidentialConstructionsDoors",
         "result" : {
            "completed_at" : "20210429T152748Z",
            "measure_class_name" : "ProcessConstructionsDoors",
            "measure_display_name" : "Set Residential Door Construction",
            "measure_name" : "process_constructions_doors",
            "measure_taxonomy" : "Envelope.Fenestration",
            "measure_type" : "ModelMeasure",
            "measure_uid" : "b78f10fa-b38d-4de2-86e9-344a78e68847",
            "measure_version_id" : "423aabac-34c3-436e-a3ea-1d30174815f1",
            "measure_version_modified" : "20200324T183310Z",
            "measure_xml_checksum" : "6FAFA9DE",
            "started_at" : "20210429T152748Z",
            "stderr" : "",
            "stdout" : "",
            "step_errors" : [],
            "step_files" : [],
            "step_info" : [
               "Material 'DoorMaterial' was created.",
               "Construction 'Door' was created with 1 material (DoorMaterial).",
               "SubSurface 'unit 1 - Surface 5 - Door' has been assigned construction 'Door'."
            ],
            "step_result" : "Success",
            "step_values" : [
               {
                  "name" : "ufactor",
                  "value" : 0.20000000000000001
               }
            ],
            "step_warnings" : []
         }
      },
      {
         "arguments" : {
            "capacity" : "40.0",
            "energy_factor" : "0.59",
            "fuel_type" : "gas",
            "has_water_heater_flue" : "false",
            "location" : "auto",
            "offcyc_power" : "0",
            "oncyc_power" : "0",
            "recovery_efficiency" : "0.76",
            "setpoint_temp" : "125",
            "tank_volume" : "auto"
         },
         "measure_dir_name" : "ResidentialHotWaterHeaterTank",
         "result" : {
            "completed_at" : "20210429T152748Z",
            "measure_class_name" : "ResidentialHotWaterHeaterTank",
            "measure_display_name" : "Set Residential Tank Water Heater",
            "measure_name" : "residential_hot_water_heater_tank",
            "measure_taxonomy" : "Service Water Heating.Water Heating",
            "measure_type" : "ModelMeasure",
            "measure_uid" : "0f2214ac-12ca-4350-9942-8d1fb1277608",
            "measure_version_id" : "589deb3e-17bf-4a03-9267-722f5f5927fc",
            "measure_version_modified" : "20200618T230345Z",
            "measure_xml_checksum" : "9882CBDB",
            "started_at" : "20210429T152748Z",
            "stderr" : "",
            "stdout" : "",
            "step_errors" : [],
            "step_files" : [],
            "step_final_condition" : "Water heater 'res wh' added to plant loop 'Domestic Hot Water Loop', with a capacity of 40.0 kBtu/hr and an actual tank volume of 38.0 gal.",
            "step_info" : [ "A new plant loop for DHW will be added to the model" ],
            "step_initial_condition" : "No water heater model currently exists",
            "step_result" : "Success",
            "step_values" : [
               {
                  "name" : "fuel_type",
                  "value" : "gas"
               },
               {
                  "name" : "tank_volume",
                  "value" : "auto"
               },
               {
                  "name" : "setpoint_temp",
                  "value" : 125
               },
               {
                  "name" : "location",
                  "value" : "auto"
               },
               {
                  "name" : "capacity",
                  "value" : "40.0"
               },
               {
                  "name" : "energy_factor",
                  "value" : "0.59"
               },
               {
                  "name" : "recovery_efficiency",
                  "value" : 0.76000000000000001
               },
               {
                  "name" : "offcyc_power",
                  "value" : 0
               },
               {
                  "name" : "oncyc_power",
                  "value" : 0
               },
               {
                  "name" : "has_water_heater_flue",
                  "value" : false
               }
            ],
            "step_warnings" : []
         }
      },
      {
         "arguments" : {
            "bath_mult" : "1",
            "plant_loop" : "auto",
            "shower_mult" : "1",
            "sink_mult" : "1"
         },
         "measure_dir_name" : "ResidentialHotWaterFixtures",
         "result" : {
            "completed_at" : "20210429T152752Z",
            "measure_class_name" : "ResidentialHotWaterFixtures",
            "measure_display_name" : "Set Residential Hot Water Fixtures",
            "measure_name" : "residential_hot_water_fixtures",
            "measure_taxonomy" : "Service Water Heating.Water Use",
            "measure_type" : "ModelMeasure",
            "measure_uid" : "6159fd36-6bfa-4907-9200-9cb852d50799",
            "measure_version_id" : "8c7caead-ced3-431b-8a6e-3d5758b96fb3",
            "measure_version_modified" : "20200804T161343Z",
            "measure_xml_checksum" : "A6ACD89C",
            "started_at" : "20210429T152748Z",
            "stderr" : "",
            "stdout" : "",
            "step_errors" : [],
            "step_files" : [],
            "step_final_condition" : "Shower, sinks, and bath fixtures drawing 22.9, 20.4, and 5.7 gal/day respectively have been added to plant loop 'Domestic Hot Water Loop' and assigned to space 'living space|story 2'.",
            "step_info" : [],
            "step_result" : "Success",
            "step_values" : [
               {
                  "name" : "shower_mult",
                  "value" : 1
               },
               {
                  "name" : "sink_mult",
                  "value" : 1
               },
               {
                  "name" : "bath_mult",
                  "value" : 1
               },
               {
                  "name" : "plant_loop",
                  "value" : "auto"
               }
            ],
            "step_warnings" : []
         }
      },
      {
         "arguments" : {
            "dist_ins" : "0",
            "dist_layout" : "trunk and branch",
            "pipe_mat" : "copper",
            "recirc_type" : "none",
            "space" : "interior"
         },
         "measure_dir_name" : "ResidentialHotWaterDistribution",
         "result" : {
            "completed_at" : "20210429T152756Z",
            "measure_class_name" : "ResidentialHotWaterDistribution",
            "measure_display_name" : "Set Residential Hot Water Distribution",
            "measure_name" : "residential_hot_water_distribution",
            "measure_taxonomy" : "Service Water Heating.Distribution",
            "measure_type" : "ModelMeasure",
            "measure_uid" : "4615ccb7-3ce5-4627-b7c2-a7fea9c4af87",
            "measure_version_id" : "7b9a1b7d-304b-4ae2-892e-0181daf20c3c",
            "measure_version_modified" : "20200804T161342Z",
            "measure_xml_checksum" : "D2231FB9",
            "started_at" : "20210429T152752Z",
            "stderr" : "",
            "stdout" : "",
            "step_errors" : [],
            "step_files" : [],
            "step_final_condition" : "A new copper, trunk and branch DHW distribution system has been assigned to the location interior of the home.",
            "step_info" : [],
            "step_result" : "Success",
            "step_values" : [
               {
                  "name" : "pipe_mat",
                  "value" : "copper"
               },
               {
                  "name" : "dist_layout",
                  "value" : "trunk and branch"
               },
               {
                  "name" : "space",
                  "value" : "interior"
               },
               {
                  "name" : "recirc_type",
                  "value" : "none"
               },
               {
                  "name" : "dist_ins",
                  "value" : 0
               }
            ],
            "step_warnings" : []
         }
      },
      {
         "arguments" : {
            "cop" : "3.05",
            "cop_capacity_derate_1ton" : "1",
            "cop_capacity_derate_2ton" : "1",
            "cop_capacity_derate_3ton" : "1",
            "cop_capacity_derate_4ton" : "1",
            "cop_capacity_derate_5ton" : "1",
            "crankcase_capacity" : "0.02",
            "crankcase_temp" : "55",
            "dse" : "NA",
            "eer" : "11.4",
            "eer_capacity_derate_1ton" : "1",
            "eer_capacity_derate_2ton" : "1",
            "eer_capacity_derate_3ton" : "1",
            "eer_capacity_derate_4ton" : "1",
            "eer_capacity_derate_5ton" : "1",
            "fan_power_installed" : "0.5",
            "fan_power_rated" : "0.365",
            "heat_pump_capacity" : "autosize",
            "hspf" : "7.7",
            "min_temp" : "0",
            "seer" : "13",
            "shr" : "0.73",
            "supplemental_capacity" : "autosize",
            "supplemental_efficiency" : "1"
         },
         "measure_dir_name" : "ResidentialHVACAirSourceHeatPumpSingleSpeed",
         "result" : {
            "completed_at" : "20210429T152756Z",
            "measure_class_name" : "ProcessSingleSpeedAirSourceHeatPump",
            "measure_display_name" : "Set Residential Single-Speed Air Source Heat Pump",
            "measure_name" : "process_single_speed_air_source_heat_pump",
            "measure_taxonomy" : "HVAC.Heating",
            "measure_type" : "ModelMeasure",
            "measure_uid" : "9f709cf6-cf55-4bb3-8087-7a5c5a98aa7c",
            "measure_version_id" : "49efe550-a59d-44c3-932f-ce61687d3248",
            "measure_version_modified" : "20200324T183314Z",
            "measure_xml_checksum" : "0DA5C9E6",
            "started_at" : "20210429T152756Z",
            "stderr" : "",
            "stdout" : "",
            "step_errors" : [],
            "step_files" : [],
            "step_info" : [
               "Added 'res ashp htg supply fan' to 'res ashp htg unitary system' of 'res ashp htg asys'",
               "Added 'res ashp htg coil' to 'res ashp htg unitary system' of 'res ashp htg asys'",
               "Added 'res ashp supp heater' to 'res ashp htg unitary system' of 'res ashp htg asys'",
               "Added 'res ashp htg asys' to 'living zone' of unit 1",
               "Added 'res ashp clg supply fan' to 'res ashp clg unitary system' of 'res ashp clg asys'",
               "Added 'res ashp clg coil' to 'res ashp clg unitary system' of 'res ashp clg asys'",
               "Added 'res ashp clg asys' to 'living zone' of unit 1"
            ],
            "step_result" : "Success",
            "step_values" : [
               {
                  "name" : "seer",
                  "value" : 13
               },
               {
                  "name" : "hspf",
                  "value" : 7.7000000000000002
               },
               {
                  "name" : "eer",
                  "value" : 11.4
               },
               {
                  "name" : "cop",
                  "value" : 3.0499999999999998
               },
               {
                  "name" : "shr",
                  "value" : 0.72999999999999998
               },
               {
                  "name" : "fan_power_rated",
                  "value" : 0.36499999999999999
               },
               {
                  "name" : "fan_power_installed",
                  "value" : 0.5
               },
               {
                  "name" : "min_temp",
                  "value" : 0
               },
               {
                  "name" : "crankcase_capacity",
                  "value" : 0.02
               },
               {
                  "name" : "crankcase_temp",
                  "value" : 55
               },
               {
                  "name" : "eer_capacity_derate_1ton",
                  "value" : 1
               },
               {
                  "name" : "eer_capacity_derate_2ton",
                  "value" : 1
               },
               {
                  "name" : "eer_capacity_derate_3ton",
                  "value" : 1
               },
               {
                  "name" : "eer_capacity_derate_4ton",
                  "value" : 1
               },
               {
                  "name" : "eer_capacity_derate_5ton",
                  "value" : 1
               },
               {
                  "name" : "cop_capacity_derate_1ton",
                  "value" : 1
               },
               {
                  "name" : "cop_capacity_derate_2ton",
                  "value" : 1
               },
               {
                  "name" : "cop_capacity_derate_3ton",
                  "value" : 1
               },
               {
                  "name" : "cop_capacity_derate_4ton",
                  "value" : 1
               },
               {
                  "name" : "cop_capacity_derate_5ton",
                  "value" : 1
               },
               {
                  "name" : "heat_pump_capacity",
                  "value" : "autosize"
               },
               {
                  "name" : "supplemental_efficiency",
                  "value" : 1
               },
               {
                  "name" : "supplemental_capacity",
                  "value" : "autosize"
               },
               {
                  "name" : "dse",
                  "value" : "NA"
               }
            ],
            "step_warnings" : []
         }
      },
      {
         "arguments" : {
            "season_end_month" : "Dec",
            "season_start_month" : "Jan",
            "use_auto_season" : "false",
            "weekday_offset_magnitude" : "0",
            "weekday_offset_schedule" : "0,0,0,0,0,0,0,0,0,0,0,0,0,0,0,0,0,0,0,0,0,0,0,0",
            "weekday_setpoint" : "71.0",
            "weekend_offset_magnitude" : "0",
            "weekend_offset_schedule" : "0,0,0,0,0,0,0,0,0,0,0,0,0,0,0,0,0,0,0,0,0,0,0,0",
            "weekend_setpoint" : "71.0"
         },
         "measure_dir_name" : "ResidentialHVACHeatingSetpoints",
         "result" : {
            "completed_at" : "20210429T152757Z",
            "measure_class_name" : "ProcessHeatingSetpoints",
            "measure_display_name" : "Set Residential Heating Setpoints and Schedules",
            "measure_name" : "process_heating_setpoints",
            "measure_taxonomy" : "HVAC.HVAC Controls",
            "measure_type" : "ModelMeasure",
            "measure_uid" : "2b167665-f760-462d-8c9d-1d909da7b628",
            "measure_version_id" : "6d9db5e9-8658-484e-b894-9e0683724f42",
            "measure_version_modified" : "20200324T183316Z",
            "measure_xml_checksum" : "2C877DEB",
            "started_at" : "20210429T152756Z",
            "stderr" : "",
            "stdout" : "",
            "step_errors" : [],
            "step_files" : [],
            "step_info" : [
               "Created new thermostat living zone temperature setpoint for living zone.",
               "Set a dummy cooling setpoint schedule for living zone temperature setpoint.",
               "Set the heating setpoint schedule for living zone temperature setpoint."
            ],
            "step_result" : "Success",
            "step_values" : [
               {
                  "name" : "weekday_setpoint",
                  "value" : "71.0"
               },
               {
                  "name" : "weekend_setpoint",
                  "value" : "71.0"
               },
               {
                  "name" : "weekday_offset_magnitude",
                  "value" : 0
               },
               {
                  "name" : "weekend_offset_magnitude",
                  "value" : 0
               },
               {
                  "name" : "weekday_offset_schedule",
                  "value" : "0,0,0,0,0,0,0,0,0,0,0,0,0,0,0,0,0,0,0,0,0,0,0,0"
               },
               {
                  "name" : "weekend_offset_schedule",
                  "value" : "0,0,0,0,0,0,0,0,0,0,0,0,0,0,0,0,0,0,0,0,0,0,0,0"
               },
               {
                  "name" : "use_auto_season",
                  "value" : false
               },
               {
                  "name" : "season_start_month",
                  "value" : "Jan"
               },
               {
                  "name" : "season_end_month",
                  "value" : "Dec"
               }
            ],
            "step_warnings" : []
         }
      },
      {
         "arguments" : {
            "season_end_month" : "Dec",
            "season_start_month" : "Jan",
            "use_auto_season" : "false",
            "weekday_offset_magnitude" : "0",
            "weekday_offset_schedule" : "0,0,0,0,0,0,0,0,0,0,0,0,0,0,0,0,0,0,0,0,0,0,0,0",
            "weekday_setpoint" : "76.0",
            "weekend_offset_magnitude" : "0",
            "weekend_offset_schedule" : "0,0,0,0,0,0,0,0,0,0,0,0,0,0,0,0,0,0,0,0,0,0,0,0",
            "weekend_setpoint" : "76.0"
         },
         "measure_dir_name" : "ResidentialHVACCoolingSetpoints",
         "result" : {
            "completed_at" : "20210429T152757Z",
            "measure_class_name" : "ProcessCoolingSetpoints",
            "measure_display_name" : "Set Residential Cooling Setpoints and Schedules",
            "measure_name" : "process_cooling_setpoints",
            "measure_taxonomy" : "HVAC.HVAC Controls",
            "measure_type" : "ModelMeasure",
            "measure_uid" : "2daa9d28-8891-4074-a1d1-bce3cb3d7ac6",
            "measure_version_id" : "f8680ca0-cd69-4f24-8145-b61dc7de4f5c",
            "measure_version_modified" : "20200324T183315Z",
            "measure_xml_checksum" : "356BE47F",
            "started_at" : "20210429T152757Z",
            "stderr" : "",
            "stdout" : "",
            "step_errors" : [],
            "step_files" : [],
            "step_info" : [
               "Found existing thermostat living zone temperature setpoint for living zone.",
               "Set the cooling setpoint schedule for living zone temperature setpoint."
            ],
            "step_result" : "Success",
            "step_values" : [
               {
                  "name" : "weekday_setpoint",
                  "value" : "76.0"
               },
               {
                  "name" : "weekend_setpoint",
                  "value" : "76.0"
               },
               {
                  "name" : "weekday_offset_magnitude",
                  "value" : 0
               },
               {
                  "name" : "weekend_offset_magnitude",
                  "value" : 0
               },
               {
                  "name" : "weekday_offset_schedule",
                  "value" : "0,0,0,0,0,0,0,0,0,0,0,0,0,0,0,0,0,0,0,0,0,0,0,0"
               },
               {
                  "name" : "weekend_offset_schedule",
                  "value" : "0,0,0,0,0,0,0,0,0,0,0,0,0,0,0,0,0,0,0,0,0,0,0,0"
               },
               {
                  "name" : "use_auto_season",
                  "value" : false
               },
               {
                  "name" : "season_start_month",
                  "value" : "Jan"
               },
               {
                  "name" : "season_end_month",
                  "value" : "Dec"
               }
            ],
            "step_warnings" : []
         }
      },
      {
         "arguments" : {
            "location" : "auto",
            "monthly_sch" : "0.837, 0.835, 1.084, 1.084, 1.084, 1.096, 1.096, 1.096, 1.096, 0.931, 0.925, 0.837",
            "mult" : "1",
            "rated_annual_energy" : "434",
            "weekday_sch" : "0.040, 0.039, 0.038, 0.037, 0.036, 0.036, 0.038, 0.040, 0.041, 0.041, 0.040, 0.040, 0.042, 0.042, 0.042, 0.041, 0.044, 0.048, 0.050, 0.048, 0.047, 0.046, 0.044, 0.041",
            "weekend_sch" : "0.040, 0.039, 0.038, 0.037, 0.036, 0.036, 0.038, 0.040, 0.041, 0.041, 0.040, 0.040, 0.042, 0.042, 0.042, 0.041, 0.044, 0.048, 0.050, 0.048, 0.047, 0.046, 0.044, 0.041"
         },
         "measure_dir_name" : "ResidentialApplianceRefrigerator",
         "result" : {
            "completed_at" : "20210429T152757Z",
            "measure_class_name" : "ResidentialRefrigerator",
            "measure_display_name" : "Set Residential Refrigerator",
            "measure_name" : "residential_refrigerator",
            "measure_taxonomy" : "Equipment.Electric Equipment",
            "measure_type" : "ModelMeasure",
            "measure_uid" : "f0259bdc-1391-41eb-80eb-efc10bd1bc02",
            "measure_version_id" : "adf65169-ff16-49fb-b28c-3e65f886c947",
            "measure_version_modified" : "20200324T183310Z",
            "measure_xml_checksum" : "126F1C43",
            "started_at" : "20210429T152757Z",
            "stderr" : "",
            "stdout" : "",
            "step_errors" : [],
            "step_files" : [],
            "step_final_condition" : "A refrigerator with 434 kWhs annual energy consumption has been assigned to space 'living space|story 2'.",
            "step_info" : [],
            "step_result" : "Success",
            "step_values" : [
               {
                  "name" : "rated_annual_energy",
                  "value" : 434
               },
               {
                  "name" : "mult",
                  "value" : 1
               },
               {
                  "name" : "weekday_sch",
                  "value" : "0.040, 0.039, 0.038, 0.037, 0.036, 0.036, 0.038, 0.040, 0.041, 0.041, 0.040, 0.040, 0.042, 0.042, 0.042, 0.041, 0.044, 0.048, 0.050, 0.048, 0.047, 0.046, 0.044, 0.041"
               },
               {
                  "name" : "weekend_sch",
                  "value" : "0.040, 0.039, 0.038, 0.037, 0.036, 0.036, 0.038, 0.040, 0.041, 0.041, 0.040, 0.040, 0.042, 0.042, 0.042, 0.041, 0.044, 0.048, 0.050, 0.048, 0.047, 0.046, 0.044, 0.041"
               },
               {
                  "name" : "monthly_sch",
                  "value" : "0.837, 0.835, 1.084, 1.084, 1.084, 1.096, 1.096, 1.096, 1.096, 0.931, 0.925, 0.837"
               },
               {
                  "name" : "location",
                  "value" : "auto"
               }
            ],
            "step_warnings" : []
         }
      },
      {
         "arguments" : {
            "annual_cost" : "24",
            "cold_cycle" : "false",
            "drum_volume" : "3.5",
            "fill_sensor" : "false",
            "imef" : "0.95",
            "internal_heater" : "false",
            "location" : "auto",
            "mult_e" : "1",
            "mult_hw" : "1",
            "plant_loop" : "auto",
            "rated_annual_energy" : "387",
            "test_date" : "2007",
            "thermostatic_control" : "true"
         },
         "measure_dir_name" : "ResidentialApplianceClothesWasher",
         "result" : {
            "completed_at" : "20210429T152759Z",
            "measure_class_name" : "ResidentialClothesWasher",
            "measure_display_name" : "Set Residential Clothes Washer",
            "measure_name" : "residential_clothes_washer",
            "measure_taxonomy" : "Equipment.Electric Equipment",
            "measure_type" : "ModelMeasure",
            "measure_uid" : "640bfdca-ba67-461e-b517-1a7291c22b22",
            "measure_version_id" : "9ee235d2-4ed9-4b28-9bd0-dd4d7e4e261e",
            "measure_version_modified" : "20200804T161342Z",
            "measure_xml_checksum" : "126F1C43",
            "started_at" : "20210429T152757Z",
            "stderr" : "",
            "stdout" : "",
            "step_errors" : [],
            "step_files" : [],
            "step_final_condition" : "A clothes washer with 35 kWhs annual energy consumption has been added to plant loop 'Domestic Hot Water Loop' and assigned to space 'living space|story 2'.",
            "step_info" : [],
            "step_result" : "Success",
            "step_values" : [
               {
                  "name" : "imef",
                  "value" : 0.94999999999999996
               },
               {
                  "name" : "rated_annual_energy",
                  "value" : 387
               },
               {
                  "name" : "annual_cost",
                  "value" : 24
               },
               {
                  "name" : "test_date",
                  "value" : 2007
               },
               {
                  "name" : "drum_volume",
                  "value" : 3.5
               },
               {
                  "name" : "cold_cycle",
                  "value" : false
               },
               {
                  "name" : "thermostatic_control",
                  "value" : true
               },
               {
                  "name" : "internal_heater",
                  "value" : false
               },
               {
                  "name" : "fill_sensor",
                  "value" : false
               },
               {
                  "name" : "mult_e",
                  "value" : 1
               },
               {
                  "name" : "mult_hw",
                  "value" : 1
               },
               {
                  "name" : "location",
                  "value" : "auto"
               },
               {
                  "name" : "plant_loop",
                  "value" : "auto"
               }
            ],
            "step_warnings" : []
         }
      },
      {
         "arguments" : {
            "cef" : "2.4",
            "fuel_split" : "0.07",
            "fuel_type" : "gas",
            "location" : "auto",
            "mult" : "1"
         },
         "measure_dir_name" : "ResidentialApplianceClothesDryer",
         "result" : {
            "completed_at" : "20210429T152801Z",
            "measure_class_name" : "ResidentialClothesDryer",
            "measure_display_name" : "Set Residential Clothes Dryer",
            "measure_name" : "residential_clothes_dryer",
            "measure_taxonomy" : "Equipment.Gas Equipment",
            "measure_type" : "ModelMeasure",
            "measure_uid" : "0ed6fb35-c3e0-4a33-a397-ce4cec92d96e",
            "measure_version_id" : "df52e1ff-8013-4b6c-bc36-228f8eca6c73",
            "measure_version_modified" : "20200804T161341Z",
            "measure_xml_checksum" : "25A40D75",
            "started_at" : "20210429T152800Z",
            "stderr" : "",
            "stdout" : "",
            "step_errors" : [],
            "step_files" : [],
            "step_final_condition" : "A clothes dryer with 30 therms and 66 kWhs annual energy consumption has been assigned to space 'living space|story 2'.",
            "step_info" : [],
            "step_result" : "Success",
            "step_values" : [
               {
                  "name" : "fuel_type",
                  "value" : "gas"
               },
               {
                  "name" : "cef",
                  "value" : 2.3999999999999999
               },
               {
                  "name" : "fuel_split",
                  "value" : 0.070000000000000007
               },
               {
                  "name" : "mult",
                  "value" : 1
               },
               {
                  "name" : "location",
                  "value" : "auto"
               }
            ],
            "step_warnings" : []
         }
      },
      {
         "arguments" : {
            "annual_gas_cost" : "23",
            "cold_inlet" : "false",
            "cold_use" : "0",
            "has_internal_heater" : "true",
            "location" : "auto",
            "mult_e" : "1",
            "mult_hw" : "1",
            "num_settings" : "12",
            "plant_loop" : "auto",
            "rated_annual_energy" : "290",
            "test_date" : "2007"
         },
         "measure_dir_name" : "ResidentialApplianceDishwasher",
         "result" : {
            "completed_at" : "20210429T152804Z",
            "measure_class_name" : "ResidentialDishwasher",
            "measure_display_name" : "Set Residential Dishwasher",
            "measure_name" : "residential_dishwasher",
            "measure_taxonomy" : "Equipment.Electric Equipment",
            "measure_type" : "ModelMeasure",
            "measure_uid" : "09ea4570-4666-4a55-812f-5e90091f5325",
            "measure_version_id" : "58405ce2-d36e-493b-8395-ad738fe5664e",
            "measure_version_modified" : "20200804T161342Z",
[...]
      },
      {
         "arguments" : {
            "diversity_mult" : "1",
            "energy_mult" : "1",
            "energy_use" : "2000",
            "lat_frac" : "0.021",
            "option_type" : "Multiplier",
            "sens_frac" : "0.93"
         },
         "measure_dir_name" : "ResidentialMiscPlugLoads",
         "result" : {
            "completed_at" : "20210429T152810Z",
            "measure_class_name" : "ResidentialMiscElectricLoads",
            "measure_display_name" : "Set Residential Plug Loads",
            "measure_name" : "residential_misc_electric_loads",
            "measure_taxonomy" : "Equipment.Electric Equipment",
            "measure_type" : "ModelMeasure",
            "measure_uid" : "3ac41688-ef52-4679-b79c-8cbdf7cbd0e7",
            "measure_version_id" : "4b3bd8e6-cc49-43be-83b1-18961a77d8df",
            "measure_version_modified" : "20201211T165357Z",
            "measure_xml_checksum" : "126F1C43",
            "started_at" : "20210429T152809Z",
            "stderr" : "",
            "stdout" : "",
            "step_errors" : [],
            "step_files" : [],
            "step_final_condition" : "Plug loads with 2341 kWhs annual energy consumption has been assigned to unit 'unit 1'.",
            "step_info" : [],
            "step_result" : "Success",
            "step_values" : [
               {
                  "name" : "option_type",
                  "value" : "Multiplier"
               },
               {
                  "name" : "energy_mult",
                  "value" : 1
               },
               {
                  "name" : "diversity_mult",
                  "value" : 1
               },
               {
                  "name" : "energy_use",
                  "value" : 2000
               },
               {
                  "name" : "sens_frac",
                  "value" : 0.93000000000000005
               },
               {
                  "name" : "lat_frac",
                  "value" : 0.021000000000000001
               }
            ],
            "step_warnings" : []
         }
      },
      {
         "arguments" : {
            "bathroom_exhaust_hour" : "5",
            "clothes_dryer_exhaust" : "100",
            "crawl_ach" : "0",
            "duct_ah_return_frac" : "0.267",
            "duct_ah_supply_frac" : "0.067",
            "duct_location" : "auto",
            "duct_location_frac" : "auto",
            "duct_num_returns" : "auto",
            "duct_r" : "0",
            "duct_return_area_mult" : "1",
            "duct_return_frac" : "0.067",
            "duct_supply_area_mult" : "1",
            "duct_supply_frac" : "0.6",
            "duct_total_leakage" : "0.3",
            "finished_basement_ach" : "0",
            "garage_ach50" : "7",
            "is_existing_home" : "false",
            "living_ach50" : "7",
            "mech_vent_ashrae_std" : "2010",
            "mech_vent_cfis_airflow_frac" : "1",
            "mech_vent_cfis_open_time" : "20",
            "mech_vent_fan_power" : "0.15",
            "mech_vent_frac_62_2" : "1",
            "mech_vent_infil_credit" : "true",
            "mech_vent_sensible_efficiency" : "0",
            "mech_vent_total_efficiency" : "0",
            "mech_vent_type" : "exhaust",
            "nat_vent_clg_offset" : "1",
            "nat_vent_clg_season" : "true",
            "nat_vent_frac_window_area_openable" : "0.2",
            "nat_vent_frac_windows_open" : "0.33",
            "nat_vent_htg_offset" : "1",
            "nat_vent_htg_season" : "true",
            "nat_vent_max_oa_hr" : "0.0115",
            "nat_vent_max_oa_rh" : "0.7",
            "nat_vent_num_weekdays" : "3",
            "nat_vent_num_weekends" : "0",
            "nat_vent_ovlp_offset" : "1",
            "nat_vent_ovlp_season" : "true",
            "pier_beam_ach" : "100",
            "range_exhaust_hour" : "16",
            "shelter_coef" : "auto",
            "terrain" : "suburban",
            "unfinished_attic_sla" : "0.00333",
            "unfinished_basement_ach" : "0.1"
         },
         "measure_dir_name" : "ResidentialAirflow",
         "result" : {
            "completed_at" : "20210429T152812Z",
            "measure_class_name" : "ResidentialAirflow",
            "measure_display_name" : "Set Residential Airflow",
            "measure_name" : "residential_airflow",
            "measure_taxonomy" : "Envelope.Infiltration",
            "measure_type" : "ModelMeasure",
            "measure_uid" : "7d2adf5c-9995-49be-b662-a23d2452bb36",
            "measure_version_id" : "5cae6f74-4f45-448a-b521-2e6b272d576d",
            "measure_version_modified" : "20210121T185147Z",
            "measure_xml_checksum" : "19EEDBBB",
            "started_at" : "20210429T152810Z",
            "stderr" : "",
            "stdout" : "",
            "step_errors" : [],
            "step_files" : [],
            "step_info" : [
               "Created ducts for res ashp clg asys.",
               "Created ducts for res ashp htg asys."
            ],
            "step_result" : "Success",
            "step_values" : [
               {
                  "name" : "living_ach50",
                  "value" : 7
               },
               {
                  "name" : "garage_ach50",
                  "value" : 7
               },
               {
                  "name" : "finished_basement_ach",
                  "value" : 0
               },
               {
                  "name" : "unfinished_basement_ach",
                  "value" : 0.10000000000000001
               },
               {
                  "name" : "crawl_ach",
                  "value" : 0
               },
               {
                  "name" : "pier_beam_ach",
                  "value" : 100
               },
               {
                  "name" : "unfinished_attic_sla",
                  "value" : 0.0033300000000000001
               },
               {
                  "name" : "shelter_coef",
                  "value" : "auto"
               },
               {
                  "name" : "terrain",
                  "value" : "suburban"
               },
               {
                  "name" : "mech_vent_type",
                  "value" : "exhaust"
               },
               {
                  "name" : "mech_vent_fan_power",
                  "value" : 0.14999999999999999
               },
               {
                  "name" : "mech_vent_total_efficiency",
                  "value" : 0
               },
               {
                  "name" : "mech_vent_sensible_efficiency",
                  "value" : 0
               },
               {
                  "name" : "mech_vent_frac_62_2",
                  "value" : 1
               },
               {
                  "name" : "mech_vent_ashrae_std",
                  "value" : "2010"
               },
               {
                  "name" : "mech_vent_infil_credit",
                  "value" : true
               },
               {
                  "name" : "is_existing_home",
                  "value" : false
               },
               {
                  "name" : "mech_vent_cfis_open_time",
                  "value" : 20
               },
               {
                  "name" : "mech_vent_cfis_airflow_frac",
                  "value" : 1
               },
               {
                  "name" : "range_exhaust_hour",
                  "value" : 16
               },
               {
                  "name" : "bathroom_exhaust_hour",
                  "value" : 5
               },
               {
                  "name" : "clothes_dryer_exhaust",
                  "value" : 100
               },
               {
                  "name" : "nat_vent_htg_offset",
                  "value" : 1
               },
               {
                  "name" : "nat_vent_clg_offset",
                  "value" : 1
               },
               {
                  "name" : "nat_vent_ovlp_offset",
                  "value" : 1
               },
               {
                  "name" : "nat_vent_htg_season",
                  "value" : true
               },
               {
                  "name" : "nat_vent_clg_season",
                  "value" : true
               },
               {
                  "name" : "nat_vent_ovlp_season",
                  "value" : true
               },
               {
                  "name" : "nat_vent_num_weekdays",
                  "value" : 3
               },
               {
                  "name" : "nat_vent_num_weekends",
                  "value" : 0
               },
               {
                  "name" : "nat_vent_frac_windows_open",
                  "value" : 0.33000000000000002
               },
               {
                  "name" : "nat_vent_frac_window_area_openable",
                  "value" : 0.20000000000000001
               },
               {
                  "name" : "nat_vent_max_oa_hr",
                  "value" : 0.0115
               },
               {
                  "name" : "nat_vent_max_oa_rh",
                  "value" : 0.69999999999999996
               },
               {
                  "name" : "duct_location",
                  "value" : "auto"
               },
               {
                  "name" : "duct_total_leakage",
                  "value" : 0.29999999999999999
               },
               {
                  "name" : "duct_supply_frac",
                  "value" : 0.59999999999999998
               },
               {
                  "name" : "duct_return_frac",
                  "value" : 0.067000000000000004
               },
               {
                  "name" : "duct_ah_supply_frac",
                  "value" : 0.067000000000000004
               },
               {
                  "name" : "duct_ah_return_frac",
                  "value" : 0.26700000000000002
               },
               {
                  "name" : "duct_location_frac",
                  "value" : "auto"
               },
               {
                  "name" : "duct_num_returns",
                  "value" : "auto"
               },
               {
                  "name" : "duct_supply_area_mult",
                  "value" : 1
               },
               {
                  "name" : "duct_return_area_mult",
                  "value" : 1
               },
               {
                  "name" : "duct_r",
                  "value" : 0
               }
            ],
            "step_warnings" : []
         }
      },
      {
         "arguments" : {
            "show_debug_info" : "false"
         },
         "measure_dir_name" : "ResidentialHVACSizing",
         "result" : {
            "completed_at" : "20210429T152813Z",
            "measure_class_name" : "ProcessHVACSizing",
            "measure_display_name" : "Set Residential HVAC Sizing",
            "measure_name" : "process_hvac_sizing",
            "measure_taxonomy" : "HVAC.HVAC Controls",
            "measure_type" : "ModelMeasure",
            "measure_uid" : "6cd70740-6ca3-4575-8b1e-663976e254d0",
            "measure_version_id" : "86dc85ce-8743-4ffa-9215-c1e898f8130b",
            "measure_version_modified" : "20190701T173020Z",
            "measure_xml_checksum" : "356BE47F",
            "started_at" : "20210429T152812Z",
            "stderr" : "",
            "stdout" : "",
            "step_errors" : [],
            "step_files" : [],
            "step_final_condition" : "HVAC objects updated as appropriate.",
            "step_info" : [
               "Found air source heat pump providing cooling in living zone.",
               "Found air source heat pump providing heating in living zone."
            ],
            "step_result" : "Success",
            "step_values" : [
               {
                  "name" : "show_debug_info",
                  "value" : false
               }
            ],
            "step_warnings" : []
         }
      },
      {
         "arguments" : {
            "array_type" : "FixedRoofMounted",
            "azimuth" : "180",
            "azimuth_type" : "relative",
            "inverter_efficiency" : "0.96",
            "module_type" : "Standard",
            "size" : "2.5",
            "system_losses" : "0.14",
            "tilt" : "0",
            "tilt_type" : "pitch"
         },
         "measure_dir_name" : "ResidentialPhotovoltaics",
         "result" : {
            "completed_at" : "20210429T152813Z",
            "measure_class_name" : "ResidentialPhotovoltaics",
            "measure_display_name" : "Set Residential Photovoltaics",
            "measure_name" : "residential_photovoltaics",
            "measure_taxonomy" : "Onsite Power Generation.Photovoltaic",
            "measure_type" : "ModelMeasure",
            "measure_uid" : "3ed7d5e0-4441-43d9-a47e-ae4560a6db92",
            "measure_version_id" : "770a26e4-a35e-4c9b-94df-d7ca9c4f611e",
            "measure_version_modified" : "20200324T183316Z",
            "measure_xml_checksum" : "1BFC8ABF",
            "started_at" : "20210429T152813Z",
            "stderr" : "",
            "stdout" : "",
            "step_errors" : [],
            "step_files" : [],
            "step_info" : [],
            "step_result" : "Success",
            "step_values" : [
               {
                  "name" : "size",
                  "value" : 2.5
               },
               {
                  "name" : "module_type",
                  "value" : "Standard"
               },
               {
                  "name" : "array_type",
                  "value" : "FixedRoofMounted"
               },
               {
                  "name" : "system_losses",
                  "value" : 0.14000000000000001
               },
               {
                  "name" : "inverter_efficiency",
                  "value" : 0.95999999999999996
               },
               {
                  "name" : "azimuth_type",
                  "value" : "relative"
               },
               {
                  "name" : "azimuth",
                  "value" : 180
               },
               {
                  "name" : "tilt_type",
                  "value" : "pitch"
               },
               {
                  "name" : "tilt",
                  "value" : 0
               }
            ],
            "step_warnings" : []
         }
      },
      {
         "arguments" : {
            "dr_directory" : "../HPXMLtoOpenStudio/resources",
            "dr_schedule_cool" : "DR_ScheduleCoolSetup.csv",
            "dr_schedule_heat" : "DR_ScheduleHeatSetback.csv",
            "offset_magnitude_cool" : "0",
            "offset_magnitude_heat" : "0"
         },
         "measure_dir_name" : "ResidentialDemandResponse",
         "result" : {
            "completed_at" : "20210429T152813Z",
            "measure_class_name" : "DemandResponseSchedule",
            "measure_display_name" : "DemandResponseSchedule",
            "measure_name" : "DemandResponseSchedule",
            "measure_taxonomy" : "HVAC.Whole System",
            "measure_type" : "ModelMeasure",
            "measure_uid" : "d3d8baa6-dadd-48cc-87bf-b5fbb3b69747",
            "measure_version_id" : "29d0cbc9-4a8e-4065-8b22-52eddf3fde37",
            "measure_version_modified" : "20200324T183312Z",
            "measure_xml_checksum" : "ED6112BA",
            "started_at" : "20210429T152813Z",
            "stderr" : "",
            "stdout" : "",
            "step_errors" : [],
            "step_files" : [],
            "step_info" : [ "DR offset magnitudes are set to zero, no thermostat DR applied" ],
            "step_result" : "Success",
            "step_values" : [
               {
                  "name" : "dr_directory",
                  "value" : "../HPXMLtoOpenStudio/resources"
               },
               {
                  "name" : "dr_schedule_heat",
                  "value" : "DR_ScheduleHeatSetback.csv"
               },
               {
                  "name" : "offset_magnitude_heat",
                  "value" : 0
               },
               {
                  "name" : "dr_schedule_cool",
                  "value" : "DR_ScheduleCoolSetup.csv"
               },
               {
                  "name" : "offset_magnitude_cool",
                  "value" : 0
               }
            ],
            "step_warnings" : []
         }
      },
      {
         "arguments" : {
            "comfort_model_1" : "Pierce"
         },
         "measure_dir_name" : "PowerOutage",
         "result" : {
            "completed_at" : "20210429T152911Z",
            "measure_class_name" : "ProcessPowerOutage",
            "measure_display_name" : "Set Residential Power Outage",
            "measure_name" : "process_power_outage",
            "measure_taxonomy" : "Whole Building.Space Types",
            "measure_type" : "ModelMeasure",
            "measure_uid" : "6b822ead-80f5-4d8d-9642-25a4e0d74304",
            "measure_version_id" : "cb3c99f5-47ee-4ab5-af30-05ba9e794e7b",
            "measure_version_modified" : "20200804T161333Z",
            "measure_xml_checksum" : "D8922A73",
            "started_at" : "20210429T152814Z",
            "stderr" : "",
            "stdout" : "",
            "step_errors" : [],
            "step_files" : [],
            "step_final_condition" : "A power outage has been added, starting on January 1 at hour 0 and lasting for 24 hours.",
            "step_info" : [
               "Modified the schedule 'res mv_1 bath exhaust schedule'.",
               "Modified the schedule 'res mv_1 range exhaust schedule'.",
               "Modified the schedule 'res nv_1 temp schedule'.",
               "Modified the schedule 'res nv_1 avail schedule'.",
               "Modified the schedule 'res cooling season'.",
               "Modified the schedule 'res heating season'.",
               "Modified the schedule 'res hot water distribution schedule'.",
               "Modified the schedule 'res refrig schedule'.",
               "Found air source heat pump providing heating in living zone.",
               "Found air source heat pump providing cooling in living zone.",
               "Modified the availability schedule for 'res ashp htg unitary system'.",
               "Modified the availability schedule for 'res ashp clg unitary system'.",
               "Modified the key name for 'res_infil_1_wh_sch_s'.",
               "Modified the schedule 'cooking_range'.",
               "Modified the schedule 'plug_loads'.",
               "Modified the schedule 'lighting_interior'.",
               "Modified the schedule 'lighting_exterior'.",
               "Modified the schedule 'lighting_garage'.",
               "Modified the schedule 'lighting_exterior_holiday'.",
               "Modified the schedule 'clothes_washer'.",
               "Modified the schedule 'clothes_washer_power'.",
               "Modified the schedule 'clothes_dryer'.",
               "Modified the schedule 'dishwasher'.",
               "Modified the schedule 'dishwasher_power'.",
               "Modified the schedule 'baths'.",
               "Modified the schedule 'showers'.",
               "Modified the schedule 'sinks'.",
               "Modified the schedule 'ceiling_fan'."
            ],
            "step_result" : "Success",
            "step_values" : [
               {
                  "name" : "otg_date",
                  "value" : "January 1"
               },
               {
                  "name" : "otg_hr",
                  "value" : 0
               },
               {
                  "name" : "otg_len",
                  "value" : 24
               },
               {
                  "name" : "comfort_model_1",
                  "value" : "Pierce"
               }
            ],
            "step_warnings" : []
         }
      }
   ],
   "updated_at" : "20210429T153010Z"
}
