Program Version,EnergyPlus, Version 9.1.0-08d2e308bb, YMD=2019.04.15 10:25
! This file shows details about the branches, nodes, and other
! elements of the flow connections.
! This file is intended for use in "debugging" potential problems
! that may also be detected by the program, but may be more easily
! identified by "eye".
! This file is also intended to support software which draws a
! schematic diagram of the HVAC system.
! ===============================================================
! #Nodes,<Number of Unique Nodes>
 #Nodes,67
! <Node>,<NodeNumber>,<Node Name>,<Node Fluid Type>,<# Times Node Referenced After Definition>
 Node,1,NODE 32,Air,3
 Node,2,NODE 46,Air,3
 Node,3,NODE 33,Air,2
 Node,4,NODE 47,Air,2
 Node,5,NODE 39,Air,3
 Node,6,NODE 53,Air,3
 Node,7,NODE 40,Air,2
 Node,8,NODE 54,Air,2
 Node,9,NODE 43,Air,4
 Node,10,NODE 44,Air,3
 Node,11,NODE 50,Air,4
 Node,12,NODE 51,Air,3
 Node,13,NODE 29,Air,4
 Node,14,NODE 30,Air,3
 Node,15,NODE 36,Air,4
 Node,16,NODE 37,Air,3
 Node,17,NODE 42,Air,3
 Node,18,NODE 49,Air,3
 Node,19,NODE 28,Air,3
 Node,20,NODE 35,Air,3
 Node,21,NODE 4,Water,2
 Node,22,NODE 12,Water,1
 Node,23,NODE 6,Water,1
 Node,24,NODE 10,Water,1
 Node,25,NODE 13,Water,1
 Node,26,NODE 14,Water,1
 Node,27,NODE 11,Water,1
 Node,28,NODE 5,Water,4
 Node,29,NODE 7,Water,2
 Node,30,DOMESTIC HOT WATER LOOP DEMAND INLET PIPE NODE,Water,1
 Node,31,NODE 9,Water,1
 Node,32,NODE 26,Water,1
 Node,33,DOMESTIC HOT WATER LOOP DEMAND BYPASS PIPE INLET NODE,Water,1
 Node,34,DOMESTIC HOT WATER LOOP DEMAND BYPASS PIPE OUTLET NODE,Water,1
 Node,35,DOMESTIC HOT WATER LOOP DEMAND OUTLET PIPE NODE,Water,1
 Node,36,NODE 8,Water,2
 Node,37,NODE 15,Water,2
 Node,38,NODE 23,Water,1
 Node,39,NODE 17,Water,1
 Node,40,NODE 21,Water,1
 Node,41,NODE 24,Water,1
 Node,42,NODE 25,Water,1
 Node,43,NODE 22,Water,1
 Node,44,NODE 16,Water,4
 Node,45,NODE 18,Water,2
 Node,46,DOMESTIC HOT WATER LOOP|UNIT 2 DEMAND INLET PIPE NODE,Water,1
 Node,47,NODE 20,Water,1
 Node,48,NODE 27,Water,1
 Node,49,DOMESTIC HOT WATER LOOP|UNIT 2 DEMAND BYPASS PIPE INLET NODE,Water,1
 Node,50,DOMESTIC HOT WATER LOOP|UNIT 2 DEMAND BYPASS PIPE OUTLET NODE,Water,1
 Node,51,DOMESTIC HOT WATER LOOP|UNIT 2 DEMAND OUTLET PIPE NODE,Water,1
 Node,52,NODE 19,Water,2
 Node,53,MODEL OUTDOOR AIR NODE,Air,0
 Node,54,NODE 1,Air,0
 Node,55,NODE 2,Air,0
 Node,56,NODE 45,Air,2
 Node,57,NODE 52,Air,2
 Node,58,NODE 31,Air,2
 Node,59,NODE 38,Air,2
 Node,60,NODE 48,Air,1
 Node,61,NODE 55,Air,1
 Node,62,NODE 34,Air,1
 Node,63,NODE 41,Air,1
 Node,64,RES AC UNITARY SYSTEM FAN - COOLING COIL NODE,Air,1
 Node,65,RES AC|UNIT 2 UNITARY SYSTEM FAN - COOLING COIL NODE,Air,1
 Node,66,RES FUR GAS UNITARY SYSTEM FAN - HEATING COIL NODE,Air,1
 Node,67,RES FUR GAS|UNIT 2 UNITARY SYSTEM FAN - HEATING COIL NODE,Air,1
! ===============================================================
! Suspicious nodes have 0 references.  It is normal for some nodes, however.
! Listing nodes with 0 references (culled from previous list):
! <Suspicious Node>,<NodeNumber>,<Node Name>,<Node Fluid Type>,<# Times Node Referenced After Definition>
 Suspicious Node,53,MODEL OUTDOOR AIR NODE,Air,0
 Suspicious Node,54,NODE 1,Air,0
 Suspicious Node,55,NODE 2,Air,0
! ===============================================================
! <#Branch Lists>,<Number of Branch Lists>
 #Branch Lists,8
! <Branch List>,<Branch List Count>,<Branch List Name>,<Loop Name>,<Loop Type>,<Number of Branches>
! <Branch>,<Branch Count>,<Branch Name>,<Loop Name>,<Loop Type>,<Branch Inlet Node Name>,<Branch Outlet Node Name>
 Branch List,1,RES AC ASYS SUPPLY BRANCHES,RES AC ASYS,Air,1
   Branch,1,RES AC ASYS MAIN BRANCH,RES AC ASYS,Air,NODE 42,NODE 43
 Branch List,2,RES AC|UNIT 2 ASYS SUPPLY BRANCHES,RES AC|UNIT 2 ASYS,Air,1
   Branch,1,RES AC|UNIT 2 ASYS MAIN BRANCH,RES AC|UNIT 2 ASYS,Air,NODE 49,NODE 50
 Branch List,3,RES FUR GAS ASYS SUPPLY BRANCHES,RES FUR GAS ASYS,Air,1
   Branch,1,RES FUR GAS ASYS MAIN BRANCH,RES FUR GAS ASYS,Air,NODE 28,NODE 29
 Branch List,4,RES FUR GAS|UNIT 2 ASYS SUPPLY BRANCHES,RES FUR GAS|UNIT 2 ASYS,Air,1
   Branch,1,RES FUR GAS|UNIT 2 ASYS MAIN BRANCH,RES FUR GAS|UNIT 2 ASYS,Air,NODE 35,NODE 36
 Branch List,5,DOMESTIC HOT WATER LOOP SUPPLY BRANCHES,DOMESTIC HOT WATER LOOP,Plant Supply,4
   Branch,1,DOMESTIC HOT WATER LOOP SUPPLY INLET BRANCH,DOMESTIC HOT WATER LOOP,Plant Supply,NODE 4,NODE 12
   Branch,2,DOMESTIC HOT WATER LOOP SUPPLY BRANCH 1,DOMESTIC HOT WATER LOOP,Plant Supply,NODE 6,NODE 10
   Branch,3,DOMESTIC HOT WATER LOOP SUPPLY BRANCH 2,DOMESTIC HOT WATER LOOP,Plant Supply,NODE 13,NODE 14
   Branch,4,DOMESTIC HOT WATER LOOP SUPPLY OUTLET BRANCH,DOMESTIC HOT WATER LOOP,Plant Supply,NODE 11,NODE 5
 Branch List,6,DOMESTIC HOT WATER LOOP DEMAND BRANCHES,DOMESTIC HOT WATER LOOP,Plant Demand,4
   Branch,1,DOMESTIC HOT WATER LOOP DEMAND INLET BRANCH,DOMESTIC HOT WATER LOOP,Plant Demand,NODE 7,DOMESTIC HOT WATER LOOP DEMAND INLET PIPE NODE
   Branch,2,DOMESTIC HOT WATER LOOP DEMAND BRANCH 1,DOMESTIC HOT WATER LOOP,Plant Demand,NODE 9,NODE 26
   Branch,3,DOMESTIC HOT WATER LOOP DEMAND BYPASS BRANCH,DOMESTIC HOT WATER LOOP,Plant Demand,DOMESTIC HOT WATER LOOP DEMAND BYPASS PIPE INLET NODE,DOMESTIC HOT WATER LOOP DEMAND BYPASS PIPE OUTLET NODE
   Branch,4,DOMESTIC HOT WATER LOOP DEMAND OUTLET BRANCH,DOMESTIC HOT WATER LOOP,Plant Demand,DOMESTIC HOT WATER LOOP DEMAND OUTLET PIPE NODE,NODE 8
 Branch List,7,DOMESTIC HOT WATER LOOP|UNIT 2 SUPPLY BRANCHES,DOMESTIC HOT WATER LOOP|UNIT 2,Plant Supply,4
   Branch,1,DOMESTIC HOT WATER LOOP|UNIT 2 SUPPLY INLET BRANCH,DOMESTIC HOT WATER LOOP|UNIT 2,Plant Supply,NODE 15,NODE 23
   Branch,2,DOMESTIC HOT WATER LOOP|UNIT 2 SUPPLY BRANCH 1,DOMESTIC HOT WATER LOOP|UNIT 2,Plant Supply,NODE 17,NODE 21
   Branch,3,DOMESTIC HOT WATER LOOP|UNIT 2 SUPPLY BRANCH 2,DOMESTIC HOT WATER LOOP|UNIT 2,Plant Supply,NODE 24,NODE 25
   Branch,4,DOMESTIC HOT WATER LOOP|UNIT 2 SUPPLY OUTLET BRANCH,DOMESTIC HOT WATER LOOP|UNIT 2,Plant Supply,NODE 22,NODE 16
 Branch List,8,DOMESTIC HOT WATER LOOP|UNIT 2 DEMAND BRANCHES,DOMESTIC HOT WATER LOOP|UNIT 2,Plant Demand,4
   Branch,1,DOMESTIC HOT WATER LOOP|UNIT 2 DEMAND INLET BRANCH,DOMESTIC HOT WATER LOOP|UNIT 2,Plant Demand,NODE 18,DOMESTIC HOT WATER LOOP|UNIT 2 DEMAND INLET PIPE NODE
   Branch,2,DOMESTIC HOT WATER LOOP|UNIT 2 DEMAND BRANCH 1,DOMESTIC HOT WATER LOOP|UNIT 2,Plant Demand,NODE 20,NODE 27
   Branch,3,DOMESTIC HOT WATER LOOP|UNIT 2 DEMAND BYPASS BRANCH,DOMESTIC HOT WATER LOOP|UNIT 2,Plant Demand,DOMESTIC HOT WATER LOOP|UNIT 2 DEMAND BYPASS PIPE INLET NODE,DOMESTIC HOT WATER LOOP|UNIT 2 DEMAND BYPASS PIPE OUTLET NODE
   Branch,4,DOMESTIC HOT WATER LOOP|UNIT 2 DEMAND OUTLET BRANCH,DOMESTIC HOT WATER LOOP|UNIT 2,Plant Demand,DOMESTIC HOT WATER LOOP|UNIT 2 DEMAND OUTLET PIPE NODE,NODE 19
! ===============================================================
! <#Supply Air Paths>,<Number of Supply Air Paths>
 #Supply Air Paths,4
! <Supply Air Path>,<Supply Air Path Count>,<Supply Air Path Name>,<AirLoopHVAC Name>
! <#Components on Supply Air Path>,<Number of Components>
! <Supply Air Path Component>,<Component Count>,<Component Type>,<Component Name>,<AirLoopHVAC Name>
! <#Outlet Nodes on Supply Air Path Component>,<Number of Nodes>
! <Supply Air Path Component Nodes>,<Node Count>,<Component Type>,<Component Name>,<Inlet Node Name>,<Outlet Node Name>,<AirLoopHVAC Name>
 Supply Air Path,1,RES AC ASYS NODE 44 SUPPLY PATH,RES AC ASYS
   #Components on Supply Air Path,1
   Supply Air Path Component,1,AIRLOOPHVAC:ZONESPLITTER,RES AC ZONE SPLITTER,RES AC ASYS
     #Outlet Nodes on Supply Air Path Component,1
     Supply Air Path Component Nodes,1,AIRLOOPHVAC:ZONESPLITTER,RES AC ZONE SPLITTER,NODE 44,NODE 48,RES AC ASYS
! <#Nodes on Supply Air Path>,<Number of Nodes>
! <Supply Air Path Node>,<Node Type>,<Node Count>,<Node Name>,<AirLoopHVAC Name>
#Nodes on Supply Air Path,2
   Supply Air Path Node,Inlet Node,1,NODE 44,RES AC ASYS
   Supply Air Path Node,Outlet Node,2,NODE 48,RES AC ASYS
 Supply Air Path,2,RES AC|UNIT 2 ASYS NODE 51 SUPPLY PATH,RES AC|UNIT 2 ASYS
   #Components on Supply Air Path,1
   Supply Air Path Component,1,AIRLOOPHVAC:ZONESPLITTER,RES AC|UNIT 2 ZONE SPLITTER,RES AC|UNIT 2 ASYS
     #Outlet Nodes on Supply Air Path Component,1
     Supply Air Path Component Nodes,1,AIRLOOPHVAC:ZONESPLITTER,RES AC|UNIT 2 ZONE SPLITTER,NODE 51,NODE 55,RES AC|UNIT 2 ASYS
! <#Nodes on Supply Air Path>,<Number of Nodes>
! <Supply Air Path Node>,<Node Type>,<Node Count>,<Node Name>,<AirLoopHVAC Name>
#Nodes on Supply Air Path,2
   Supply Air Path Node,Inlet Node,1,NODE 51,RES AC|UNIT 2 ASYS
   Supply Air Path Node,Outlet Node,2,NODE 55,RES AC|UNIT 2 ASYS
 Supply Air Path,3,RES FUR GAS ASYS NODE 30 SUPPLY PATH,RES FUR GAS ASYS
   #Components on Supply Air Path,1
   Supply Air Path Component,1,AIRLOOPHVAC:ZONESPLITTER,RES FUR GAS ZONE SPLITTER,RES FUR GAS ASYS
     #Outlet Nodes on Supply Air Path Component,1
     Supply Air Path Component Nodes,1,AIRLOOPHVAC:ZONESPLITTER,RES FUR GAS ZONE SPLITTER,NODE 30,NODE 34,RES FUR GAS ASYS
! <#Nodes on Supply Air Path>,<Number of Nodes>
! <Supply Air Path Node>,<Node Type>,<Node Count>,<Node Name>,<AirLoopHVAC Name>
#Nodes on Supply Air Path,2
   Supply Air Path Node,Inlet Node,1,NODE 30,RES FUR GAS ASYS
   Supply Air Path Node,Outlet Node,2,NODE 34,RES FUR GAS ASYS
 Supply Air Path,4,RES FUR GAS|UNIT 2 ASYS NODE 37 SUPPLY PATH,RES FUR GAS|UNIT 2 ASYS
   #Components on Supply Air Path,1
   Supply Air Path Component,1,AIRLOOPHVAC:ZONESPLITTER,RES FUR GAS|UNIT 2 ZONE SPLITTER,RES FUR GAS|UNIT 2 ASYS
     #Outlet Nodes on Supply Air Path Component,1
     Supply Air Path Component Nodes,1,AIRLOOPHVAC:ZONESPLITTER,RES FUR GAS|UNIT 2 ZONE SPLITTER,NODE 37,NODE 41,RES FUR GAS|UNIT 2 ASYS
! <#Nodes on Supply Air Path>,<Number of Nodes>
! <Supply Air Path Node>,<Node Type>,<Node Count>,<Node Name>,<AirLoopHVAC Name>
#Nodes on Supply Air Path,2
   Supply Air Path Node,Inlet Node,1,NODE 37,RES FUR GAS|UNIT 2 ASYS
   Supply Air Path Node,Outlet Node,2,NODE 41,RES FUR GAS|UNIT 2 ASYS
! ===============================================================
! <#Return Air Paths>,<Number of Return Air Paths>
 #Return Air Paths,4
! <Return Air Path>,<Return Air Path Count>,<Return Air Path Name>,<AirLoopHVAC Name>
! <#Components on Return Air Path>,<Number of Components>
! <Return Air Path Component>,<Component Count>,<Component Type>,<Component Name>,<AirLoopHVAC Name>
! <#Inlet Nodes on Return Air Path Component>,<Number of Nodes>
! <Return Air Path Component Nodes>,<Node Count>,<Component Type>,<Component Name>,<Inlet Node Name>,<Outlet Node Name>,<AirLoopHVAC Name>
 Return Air Path,1,RES AC ASYS RETURN PATH,RES AC ASYS
   #Components on Return Air Path,1
   Return Air Path Component,1,AIRLOOPHVAC:ZONEMIXER,RES AC ZONE MIXER,RES AC ASYS
     #Inlet Nodes on Return Air Path Component,1
     Return Air Path Component Nodes,1,AIRLOOPHVAC:ZONEMIXER,RES AC ZONE MIXER,NODE 47,NODE 45,RES AC ASYS
! <#Nodes on Return Air Path>,<Number of Nodes>
! <Return Air Path Node>,<Node Type>,<Node Count>,<Node Name>,<AirLoopHVAC Name>
   #Nodes on Return Air Path,2
   Return Air Path Node,Outlet Node,1,NODE 45,RES AC ASYS
   Return Air Path Node,Inlet Node,2,NODE 47,RES AC ASYS
 Return Air Path,2,RES AC|UNIT 2 ASYS RETURN PATH,RES AC|UNIT 2 ASYS
   #Components on Return Air Path,1
   Return Air Path Component,1,AIRLOOPHVAC:ZONEMIXER,RES AC|UNIT 2 ZONE MIXER,RES AC|UNIT 2 ASYS
     #Inlet Nodes on Return Air Path Component,1
     Return Air Path Component Nodes,1,AIRLOOPHVAC:ZONEMIXER,RES AC|UNIT 2 ZONE MIXER,NODE 54,NODE 52,RES AC|UNIT 2 ASYS
! <#Nodes on Return Air Path>,<Number of Nodes>
! <Return Air Path Node>,<Node Type>,<Node Count>,<Node Name>,<AirLoopHVAC Name>
   #Nodes on Return Air Path,2
   Return Air Path Node,Outlet Node,1,NODE 52,RES AC|UNIT 2 ASYS
   Return Air Path Node,Inlet Node,2,NODE 54,RES AC|UNIT 2 ASYS
 Return Air Path,3,RES FUR GAS ASYS RETURN PATH,RES FUR GAS ASYS
   #Components on Return Air Path,1
   Return Air Path Component,1,AIRLOOPHVAC:ZONEMIXER,RES FUR GAS ZONE MIXER,RES FUR GAS ASYS
     #Inlet Nodes on Return Air Path Component,1
     Return Air Path Component Nodes,1,AIRLOOPHVAC:ZONEMIXER,RES FUR GAS ZONE MIXER,NODE 33,NODE 31,RES FUR GAS ASYS
! <#Nodes on Return Air Path>,<Number of Nodes>
! <Return Air Path Node>,<Node Type>,<Node Count>,<Node Name>,<AirLoopHVAC Name>
   #Nodes on Return Air Path,2
   Return Air Path Node,Outlet Node,1,NODE 31,RES FUR GAS ASYS
   Return Air Path Node,Inlet Node,2,NODE 33,RES FUR GAS ASYS
 Return Air Path,4,RES FUR GAS|UNIT 2 ASYS RETURN PATH,RES FUR GAS|UNIT 2 ASYS
   #Components on Return Air Path,1
   Return Air Path Component,1,AIRLOOPHVAC:ZONEMIXER,RES FUR GAS|UNIT 2 ZONE MIXER,RES FUR GAS|UNIT 2 ASYS
     #Inlet Nodes on Return Air Path Component,1
     Return Air Path Component Nodes,1,AIRLOOPHVAC:ZONEMIXER,RES FUR GAS|UNIT 2 ZONE MIXER,NODE 40,NODE 38,RES FUR GAS|UNIT 2 ASYS
! <#Nodes on Return Air Path>,<Number of Nodes>
! <Return Air Path Node>,<Node Type>,<Node Count>,<Node Name>,<AirLoopHVAC Name>
   #Nodes on Return Air Path,2
   Return Air Path Node,Outlet Node,1,NODE 38,RES FUR GAS|UNIT 2 ASYS
   Return Air Path Node,Inlet Node,2,NODE 40,RES FUR GAS|UNIT 2 ASYS
! ===============================================================
! #Outdoor Air Nodes,<Number of Outdoor Air Nodes>
 #Outdoor Air Nodes,1
! <Outdoor Air Node>,<NodeNumber>,<Node Name>
 Outdoor Air Node,53,MODEL OUTDOOR AIR NODE
! ===============================================================
! <#Component Sets>,<Number of Component Sets>
 #Component Sets,32
! <Component Set>,<Component Set Count>,<Parent Object Type>,<Parent Object Name>,<Component Type>,<Component Name>,<Inlet Node ID>,<Outlet Node ID>,<Description>
 Component Set,1,BRANCH,RES AC ASYS MAIN BRANCH,AIRLOOPHVAC:UNITARYSYSTEM,RES AC UNITARY SYSTEM,NODE 42,NODE 43,Air Nodes
 Component Set,2,BRANCH,RES AC|UNIT 2 ASYS MAIN BRANCH,AIRLOOPHVAC:UNITARYSYSTEM,RES AC|UNIT 2 UNITARY SYSTEM,NODE 49,NODE 50,Air Nodes
 Component Set,3,BRANCH,RES FUR GAS ASYS MAIN BRANCH,AIRLOOPHVAC:UNITARYSYSTEM,RES FUR GAS UNITARY SYSTEM,NODE 28,NODE 29,Air Nodes
 Component Set,4,BRANCH,RES FUR GAS|UNIT 2 ASYS MAIN BRANCH,AIRLOOPHVAC:UNITARYSYSTEM,RES FUR GAS|UNIT 2 UNITARY SYSTEM,NODE 35,NODE 36,Air Nodes
 Component Set,5,BRANCH,DOMESTIC HOT WATER LOOP SUPPLY INLET BRANCH,PUMP:VARIABLESPEED,PUMP VARIABLE SPEED 1,NODE 4,NODE 12,Water Nodes
 Component Set,6,BRANCH,DOMESTIC HOT WATER LOOP SUPPLY BRANCH 1,PIPE:ADIABATIC,PIPE ADIABATIC 1,NODE 6,NODE 10,Pipe Nodes
 Component Set,7,BRANCH,DOMESTIC HOT WATER LOOP SUPPLY BRANCH 2,WATERHEATER:MIXED,RES WH,NODE 13,NODE 14,Use Side Water Nodes
 Component Set,8,BRANCH,DOMESTIC HOT WATER LOOP SUPPLY OUTLET BRANCH,PIPE:ADIABATIC,PIPE ADIABATIC 2,NODE 11,NODE 5,Pipe Nodes
 Component Set,9,BRANCH,DOMESTIC HOT WATER LOOP DEMAND INLET BRANCH,PIPE:ADIABATIC,DOMESTIC HOT WATER LOOP DEMAND INLET PIPE,NODE 7,DOMESTIC HOT WATER LOOP DEMAND INLET PIPE NODE,Pipe Nodes
 Component Set,10,BRANCH,DOMESTIC HOT WATER LOOP DEMAND BRANCH 1,WATERUSE:CONNECTIONS,WATER USE CONNECTIONS 1,NODE 9,NODE 26,DHW Nodes
 Component Set,11,BRANCH,DOMESTIC HOT WATER LOOP DEMAND BYPASS BRANCH,PIPE:ADIABATIC,DOMESTIC HOT WATER LOOP DEMAND BYPASS PIPE,DOMESTIC HOT WATER LOOP DEMAND BYPASS PIPE INLET NODE,DOMESTIC HOT WATER LOOP DEMAND BYPASS PIPE OUTLET NODE,Pipe Nodes
 Component Set,12,BRANCH,DOMESTIC HOT WATER LOOP DEMAND OUTLET BRANCH,PIPE:ADIABATIC,DOMESTIC HOT WATER LOOP DEMAND OUTLET PIPE,DOMESTIC HOT WATER LOOP DEMAND OUTLET PIPE NODE,NODE 8,Pipe Nodes
 Component Set,13,BRANCH,DOMESTIC HOT WATER LOOP|UNIT 2 SUPPLY INLET BRANCH,PUMP:VARIABLESPEED,PUMP VARIABLE SPEED 2,NODE 15,NODE 23,Water Nodes
 Component Set,14,BRANCH,DOMESTIC HOT WATER LOOP|UNIT 2 SUPPLY BRANCH 1,PIPE:ADIABATIC,PIPE ADIABATIC 3,NODE 17,NODE 21,Pipe Nodes
 Component Set,15,BRANCH,DOMESTIC HOT WATER LOOP|UNIT 2 SUPPLY BRANCH 2,WATERHEATER:MIXED,RES WH|UNIT 2,NODE 24,NODE 25,Use Side Water Nodes
 Component Set,16,BRANCH,DOMESTIC HOT WATER LOOP|UNIT 2 SUPPLY OUTLET BRANCH,PIPE:ADIABATIC,PIPE ADIABATIC 4,NODE 22,NODE 16,Pipe Nodes
 Component Set,17,BRANCH,DOMESTIC HOT WATER LOOP|UNIT 2 DEMAND INLET BRANCH,PIPE:ADIABATIC,DOMESTIC HOT WATER LOOP|UNIT 2 DEMAND INLET PIPE,NODE 18,DOMESTIC HOT WATER LOOP|UNIT 2 DEMAND INLET PIPE NODE,Pipe Nodes
 Component Set,18,BRANCH,DOMESTIC HOT WATER LOOP|UNIT 2 DEMAND BRANCH 1,WATERUSE:CONNECTIONS,WATER USE CONNECTIONS 2,NODE 20,NODE 27,DHW Nodes
 Component Set,19,BRANCH,DOMESTIC HOT WATER LOOP|UNIT 2 DEMAND BYPASS BRANCH,PIPE:ADIABATIC,DOMESTIC HOT WATER LOOP|UNIT 2 DEMAND BYPASS PIPE,DOMESTIC HOT WATER LOOP|UNIT 2 DEMAND BYPASS PIPE INLET NODE,DOMESTIC HOT WATER LOOP|UNIT 2 DEMAND BYPASS PIPE OUTLET NODE,Pipe Nodes
 Component Set,20,BRANCH,DOMESTIC HOT WATER LOOP|UNIT 2 DEMAND OUTLET BRANCH,PIPE:ADIABATIC,DOMESTIC HOT WATER LOOP|UNIT 2 DEMAND OUTLET PIPE,DOMESTIC HOT WATER LOOP|UNIT 2 DEMAND OUTLET PIPE NODE,NODE 19,Pipe Nodes
 Component Set,21,ZONEHVAC:AIRDISTRIBUTIONUNIT,ADU RES FUR GAS LIVING ZONE DIRECT AIR,AIRTERMINAL:SINGLEDUCT:CONSTANTVOLUME:NOREHEAT,RES FUR GAS LIVING ZONE DIRECT AIR,NODE 34,NODE 32,Air Nodes
 Component Set,22,ZONEHVAC:AIRDISTRIBUTIONUNIT,ADU RES AC LIVING ZONE DIRECT AIR,AIRTERMINAL:SINGLEDUCT:CONSTANTVOLUME:NOREHEAT,RES AC LIVING ZONE DIRECT AIR,NODE 48,NODE 46,Air Nodes
 Component Set,23,ZONEHVAC:AIRDISTRIBUTIONUNIT,ADU RES FUR GAS|UNIT 2 LIVING ZONE|UNIT 2 DIRECT AIR,AIRTERMINAL:SINGLEDUCT:CONSTANTVOLUME:NOREHEAT,RES FUR GAS|UNIT 2 LIVING ZONE|UNIT 2 DIRECT AIR,NODE 41,NODE 39,Air Nodes
 Component Set,24,ZONEHVAC:AIRDISTRIBUTIONUNIT,ADU RES AC|UNIT 2 LIVING ZONE|UNIT 2 DIRECT AIR,AIRTERMINAL:SINGLEDUCT:CONSTANTVOLUME:NOREHEAT,RES AC|UNIT 2 LIVING ZONE|UNIT 2 DIRECT AIR,NODE 55,NODE 53,Air Nodes
 Component Set,25,AIRLOOPHVAC:UNITARYSYSTEM,RES AC UNITARY SYSTEM,FAN:ONOFF,RES AC CLG SUPPLY FAN,NODE 42,RES AC UNITARY SYSTEM FAN - COOLING COIL NODE,Air Nodes
 Component Set,26,AIRLOOPHVAC:UNITARYSYSTEM,RES AC|UNIT 2 UNITARY SYSTEM,FAN:ONOFF,RES AC|UNIT 2 CLG SUPPLY FAN,NODE 49,RES AC|UNIT 2 UNITARY SYSTEM FAN - COOLING COIL NODE,Air Nodes
 Component Set,27,AIRLOOPHVAC:UNITARYSYSTEM,RES FUR GAS UNITARY SYSTEM,FAN:ONOFF,RES FUR GAS HTG SUPPLY FAN,NODE 28,RES FUR GAS UNITARY SYSTEM FAN - HEATING COIL NODE,Air Nodes
 Component Set,28,AIRLOOPHVAC:UNITARYSYSTEM,RES FUR GAS|UNIT 2 UNITARY SYSTEM,FAN:ONOFF,RES FUR GAS|UNIT 2 HTG SUPPLY FAN,NODE 35,RES FUR GAS|UNIT 2 UNITARY SYSTEM FAN - HEATING COIL NODE,Air Nodes
 Component Set,29,AIRLOOPHVAC:UNITARYSYSTEM,RES AC UNITARY SYSTEM,COIL:COOLING:DX:SINGLESPEED,RES AC COOLING COIL,RES AC UNITARY SYSTEM FAN - COOLING COIL NODE,NODE 43,Air Nodes
 Component Set,30,AIRLOOPHVAC:UNITARYSYSTEM,RES AC|UNIT 2 UNITARY SYSTEM,COIL:COOLING:DX:SINGLESPEED,RES AC|UNIT 2 COOLING COIL,RES AC|UNIT 2 UNITARY SYSTEM FAN - COOLING COIL NODE,NODE 50,Air Nodes
 Component Set,31,AIRLOOPHVAC:UNITARYSYSTEM,RES FUR GAS UNITARY SYSTEM,COIL:HEATING:FUEL,RES FUR GAS HEATING COIL,RES FUR GAS UNITARY SYSTEM FAN - HEATING COIL NODE,NODE 29,Air Nodes
 Component Set,32,AIRLOOPHVAC:UNITARYSYSTEM,RES FUR GAS|UNIT 2 UNITARY SYSTEM,COIL:HEATING:FUEL,RES FUR GAS|UNIT 2 HEATING COIL,RES FUR GAS|UNIT 2 UNITARY SYSTEM FAN - HEATING COIL NODE,NODE 36,Air Nodes
! ===============================================================
! <# Plant Loops>,<Number of Plant Loops>
 #Plant Loops,2
! <Plant Loop>,<Plant Loop Name>,<Loop Type>,<Inlet Node Name>,<Outlet Node Name>,<Branch List>,<Connector List>
! <Plant Loop Connector>,<Connector Type>,<Connector Name>,<Loop Name>,<Loop Type>,<Number of Inlets/Outlets>
! <Plant Loop Connector Branches>,<Connector Node Count>,<Connector Type>,<Connector Name>,<Inlet Branch>,<Outlet Branch>,<Loop Name>,<Loop Type>
! <Plant Loop Connector Nodes>,<Connector Node Count>,<Connector Type>,<Connector Name>,<Inlet Node>,<Outlet Node>,<Loop Name>,<Loop Type>
! <Plant Loop Supply Connection>,<Plant Loop Name>,<Supply Side Outlet Node Name>,<Demand Side Inlet Node Name>
! <Plant Loop Return Connection>,<Plant Loop Name>,<Demand Side Outlet Node Name>,<Supply Side Inlet Node Name>
 Plant Loop,DOMESTIC HOT WATER LOOP,Demand,NODE 7,NODE 8,DOMESTIC HOT WATER LOOP DEMAND BRANCHES,DOMESTIC HOT WATER LOOP DEMAND CONNECTOR LIST
   Plant Loop Connector,Splitter,DOMESTIC HOT WATER LOOP DEMAND SPLITTER,DOMESTIC HOT WATER LOOP,Demand,2
     Plant Loop Connector Branches,1,Splitter,DOMESTIC HOT WATER LOOP DEMAND SPLITTER,DOMESTIC HOT WATER LOOP DEMAND INLET BRANCH,DOMESTIC HOT WATER LOOP DEMAND BRANCH 1,DOMESTIC HOT WATER LOOP,Demand
     Plant Loop Connector Nodes,   1,Splitter,DOMESTIC HOT WATER LOOP DEMAND SPLITTER,DOMESTIC HOT WATER LOOP DEMAND INLET PIPE NODE,NODE 9,DOMESTIC HOT WATER LOOP,Demand
     Plant Loop Connector Branches,2,Splitter,DOMESTIC HOT WATER LOOP DEMAND SPLITTER,DOMESTIC HOT WATER LOOP DEMAND INLET BRANCH,DOMESTIC HOT WATER LOOP DEMAND BYPASS BRANCH,DOMESTIC HOT WATER LOOP,Demand
     Plant Loop Connector Nodes,   2,Splitter,DOMESTIC HOT WATER LOOP DEMAND SPLITTER,DOMESTIC HOT WATER LOOP DEMAND INLET PIPE NODE,DOMESTIC HOT WATER LOOP DEMAND BYPASS PIPE INLET NODE,DOMESTIC HOT WATER LOOP,Demand
   Plant Loop Connector,Mixer,DOMESTIC HOT WATER LOOP DEMAND MIXER,DOMESTIC HOT WATER LOOP,Demand,2
     Plant Loop Connector Branches,1,Mixer,DOMESTIC HOT WATER LOOP DEMAND MIXER,DOMESTIC HOT WATER LOOP DEMAND BRANCH 1,DOMESTIC HOT WATER LOOP DEMAND OUTLET BRANCH,DOMESTIC HOT WATER LOOP,Demand
     Plant Loop Connector Nodes,   1,Mixer,DOMESTIC HOT WATER LOOP DEMAND MIXER,NODE 26,DOMESTIC HOT WATER LOOP DEMAND OUTLET PIPE NODE,DOMESTIC HOT WATER LOOP,Demand
     Plant Loop Connector Branches,2,Mixer,DOMESTIC HOT WATER LOOP DEMAND MIXER,DOMESTIC HOT WATER LOOP DEMAND BYPASS BRANCH,DOMESTIC HOT WATER LOOP DEMAND OUTLET BRANCH,DOMESTIC HOT WATER LOOP,Demand
     Plant Loop Connector Nodes,   2,Mixer,DOMESTIC HOT WATER LOOP DEMAND MIXER,DOMESTIC HOT WATER LOOP DEMAND BYPASS PIPE OUTLET NODE,DOMESTIC HOT WATER LOOP DEMAND OUTLET PIPE NODE,DOMESTIC HOT WATER LOOP,Demand
 Plant Loop,DOMESTIC HOT WATER LOOP,Supply,NODE 4,NODE 5,DOMESTIC HOT WATER LOOP SUPPLY BRANCHES,DOMESTIC HOT WATER LOOP SUPPLY CONNECTOR LIST
   Plant Loop Connector,Splitter,DOMESTIC HOT WATER LOOP SUPPLY SPLITTER,DOMESTIC HOT WATER LOOP,Supply,2
     Plant Loop Connector Branches,1,Splitter,DOMESTIC HOT WATER LOOP SUPPLY SPLITTER,DOMESTIC HOT WATER LOOP SUPPLY INLET BRANCH,DOMESTIC HOT WATER LOOP SUPPLY BRANCH 1,DOMESTIC HOT WATER LOOP,Supply
     Plant Loop Connector Nodes,   1,Splitter,DOMESTIC HOT WATER LOOP SUPPLY SPLITTER,NODE 12,NODE 6,DOMESTIC HOT WATER LOOP,Supply
     Plant Loop Connector Branches,2,Splitter,DOMESTIC HOT WATER LOOP SUPPLY SPLITTER,DOMESTIC HOT WATER LOOP SUPPLY INLET BRANCH,DOMESTIC HOT WATER LOOP SUPPLY BRANCH 2,DOMESTIC HOT WATER LOOP,Supply
     Plant Loop Connector Nodes,   2,Splitter,DOMESTIC HOT WATER LOOP SUPPLY SPLITTER,NODE 12,NODE 13,DOMESTIC HOT WATER LOOP,Supply
   Plant Loop Connector,Mixer,DOMESTIC HOT WATER LOOP SUPPLY MIXER,DOMESTIC HOT WATER LOOP,Supply,2
     Plant Loop Connector Branches,1,Mixer,DOMESTIC HOT WATER LOOP SUPPLY MIXER,DOMESTIC HOT WATER LOOP SUPPLY BRANCH 1,DOMESTIC HOT WATER LOOP SUPPLY OUTLET BRANCH,DOMESTIC HOT WATER LOOP,Supply
     Plant Loop Connector Nodes,   1,Mixer,DOMESTIC HOT WATER LOOP SUPPLY MIXER,NODE 10,NODE 11,DOMESTIC HOT WATER LOOP,Supply
     Plant Loop Connector Branches,2,Mixer,DOMESTIC HOT WATER LOOP SUPPLY MIXER,DOMESTIC HOT WATER LOOP SUPPLY BRANCH 2,DOMESTIC HOT WATER LOOP SUPPLY OUTLET BRANCH,DOMESTIC HOT WATER LOOP,Supply
     Plant Loop Connector Nodes,   2,Mixer,DOMESTIC HOT WATER LOOP SUPPLY MIXER,NODE 14,NODE 11,DOMESTIC HOT WATER LOOP,Supply
 Plant Loop Supply Connection,DOMESTIC HOT WATER LOOP,NODE 5,NODE 7
 Plant Loop Return Connection,DOMESTIC HOT WATER LOOP,NODE 8,NODE 4
 Plant Loop,DOMESTIC HOT WATER LOOP|UNIT 2,Demand,NODE 18,NODE 19,DOMESTIC HOT WATER LOOP|UNIT 2 DEMAND BRANCHES,DOMESTIC HOT WATER LOOP|UNIT 2 DEMAND CONNECTOR LIST
   Plant Loop Connector,Splitter,DOMESTIC HOT WATER LOOP|UNIT 2 DEMAND SPLITTER,DOMESTIC HOT WATER LOOP|UNIT 2,Demand,2
     Plant Loop Connector Branches,1,Splitter,DOMESTIC HOT WATER LOOP|UNIT 2 DEMAND SPLITTER,DOMESTIC HOT WATER LOOP|UNIT 2 DEMAND INLET BRANCH,DOMESTIC HOT WATER LOOP|UNIT 2 DEMAND BRANCH 1,DOMESTIC HOT WATER LOOP|UNIT 2,Demand
     Plant Loop Connector Nodes,   1,Splitter,DOMESTIC HOT WATER LOOP|UNIT 2 DEMAND SPLITTER,DOMESTIC HOT WATER LOOP|UNIT 2 DEMAND INLET PIPE NODE,NODE 20,DOMESTIC HOT WATER LOOP|UNIT 2,Demand
     Plant Loop Connector Branches,2,Splitter,DOMESTIC HOT WATER LOOP|UNIT 2 DEMAND SPLITTER,DOMESTIC HOT WATER LOOP|UNIT 2 DEMAND INLET BRANCH,DOMESTIC HOT WATER LOOP|UNIT 2 DEMAND BYPASS BRANCH,DOMESTIC HOT WATER LOOP|UNIT 2,Demand
     Plant Loop Connector Nodes,   2,Splitter,DOMESTIC HOT WATER LOOP|UNIT 2 DEMAND SPLITTER,DOMESTIC HOT WATER LOOP|UNIT 2 DEMAND INLET PIPE NODE,DOMESTIC HOT WATER LOOP|UNIT 2 DEMAND BYPASS PIPE INLET NODE,DOMESTIC HOT WATER LOOP|UNIT 2,Demand
   Plant Loop Connector,Mixer,DOMESTIC HOT WATER LOOP|UNIT 2 DEMAND MIXER,DOMESTIC HOT WATER LOOP|UNIT 2,Demand,2
     Plant Loop Connector Branches,1,Mixer,DOMESTIC HOT WATER LOOP|UNIT 2 DEMAND MIXER,DOMESTIC HOT WATER LOOP|UNIT 2 DEMAND BRANCH 1,DOMESTIC HOT WATER LOOP|UNIT 2 DEMAND OUTLET BRANCH,DOMESTIC HOT WATER LOOP|UNIT 2,Demand
     Plant Loop Connector Nodes,   1,Mixer,DOMESTIC HOT WATER LOOP|UNIT 2 DEMAND MIXER,NODE 27,DOMESTIC HOT WATER LOOP|UNIT 2 DEMAND OUTLET PIPE NODE,DOMESTIC HOT WATER LOOP|UNIT 2,Demand
     Plant Loop Connector Branches,2,Mixer,DOMESTIC HOT WATER LOOP|UNIT 2 DEMAND MIXER,DOMESTIC HOT WATER LOOP|UNIT 2 DEMAND BYPASS BRANCH,DOMESTIC HOT WATER LOOP|UNIT 2 DEMAND OUTLET BRANCH,DOMESTIC HOT WATER LOOP|UNIT 2,Demand
     Plant Loop Connector Nodes,   2,Mixer,DOMESTIC HOT WATER LOOP|UNIT 2 DEMAND MIXER,DOMESTIC HOT WATER LOOP|UNIT 2 DEMAND BYPASS PIPE OUTLET NODE,DOMESTIC HOT WATER LOOP|UNIT 2 DEMAND OUTLET PIPE NODE,DOMESTIC HOT WATER LOOP|UNIT 2,Demand
 Plant Loop,DOMESTIC HOT WATER LOOP|UNIT 2,Supply,NODE 15,NODE 16,DOMESTIC HOT WATER LOOP|UNIT 2 SUPPLY BRANCHES,DOMESTIC HOT WATER LOOP|UNIT 2 SUPPLY CONNECTOR LIST
   Plant Loop Connector,Splitter,DOMESTIC HOT WATER LOOP|UNIT 2 SUPPLY SPLITTER,DOMESTIC HOT WATER LOOP|UNIT 2,Supply,2
     Plant Loop Connector Branches,1,Splitter,DOMESTIC HOT WATER LOOP|UNIT 2 SUPPLY SPLITTER,DOMESTIC HOT WATER LOOP|UNIT 2 SUPPLY INLET BRANCH,DOMESTIC HOT WATER LOOP|UNIT 2 SUPPLY BRANCH 1,DOMESTIC HOT WATER LOOP|UNIT 2,Supply
     Plant Loop Connector Nodes,   1,Splitter,DOMESTIC HOT WATER LOOP|UNIT 2 SUPPLY SPLITTER,NODE 23,NODE 17,DOMESTIC HOT WATER LOOP|UNIT 2,Supply
     Plant Loop Connector Branches,2,Splitter,DOMESTIC HOT WATER LOOP|UNIT 2 SUPPLY SPLITTER,DOMESTIC HOT WATER LOOP|UNIT 2 SUPPLY INLET BRANCH,DOMESTIC HOT WATER LOOP|UNIT 2 SUPPLY BRANCH 2,DOMESTIC HOT WATER LOOP|UNIT 2,Supply
     Plant Loop Connector Nodes,   2,Splitter,DOMESTIC HOT WATER LOOP|UNIT 2 SUPPLY SPLITTER,NODE 23,NODE 24,DOMESTIC HOT WATER LOOP|UNIT 2,Supply
   Plant Loop Connector,Mixer,DOMESTIC HOT WATER LOOP|UNIT 2 SUPPLY MIXER,DOMESTIC HOT WATER LOOP|UNIT 2,Supply,2
     Plant Loop Connector Branches,1,Mixer,DOMESTIC HOT WATER LOOP|UNIT 2 SUPPLY MIXER,DOMESTIC HOT WATER LOOP|UNIT 2 SUPPLY BRANCH 1,DOMESTIC HOT WATER LOOP|UNIT 2 SUPPLY OUTLET BRANCH,DOMESTIC HOT WATER LOOP|UNIT 2,Supply
     Plant Loop Connector Nodes,   1,Mixer,DOMESTIC HOT WATER LOOP|UNIT 2 SUPPLY MIXER,NODE 21,NODE 22,DOMESTIC HOT WATER LOOP|UNIT 2,Supply
     Plant Loop Connector Branches,2,Mixer,DOMESTIC HOT WATER LOOP|UNIT 2 SUPPLY MIXER,DOMESTIC HOT WATER LOOP|UNIT 2 SUPPLY BRANCH 2,DOMESTIC HOT WATER LOOP|UNIT 2 SUPPLY OUTLET BRANCH,DOMESTIC HOT WATER LOOP|UNIT 2,Supply
     Plant Loop Connector Nodes,   2,Mixer,DOMESTIC HOT WATER LOOP|UNIT 2 SUPPLY MIXER,NODE 25,NODE 22,DOMESTIC HOT WATER LOOP|UNIT 2,Supply
 Plant Loop Supply Connection,DOMESTIC HOT WATER LOOP|UNIT 2,NODE 16,NODE 18
 Plant Loop Return Connection,DOMESTIC HOT WATER LOOP|UNIT 2,NODE 19,NODE 15
! ===============================================================
! <# Condenser Loops>,<Number of Condenser Loops>
 #Condenser Loops,0
! <Condenser Loop>,<Condenser Loop Name>,<Loop Type>,<Inlet Node Name>,<Outlet Node Name>,<Branch List>,<Connector List>
! <Condenser Loop Connector>,<Connector Type>,<Connector Name>,<Loop Name>,<Loop Type>,<Number of Inlets/Outlets>
! <Condenser Loop Connector Branches>,<Connector Node Count>,<Connector Type>,<Connector Name>,<Inlet Branch>,<Outlet Branch>,<Loop Name>,<Loop Type>
! <Condenser Loop Connector Nodes>,<Connector Node Count>,<Connector Type>,<Connector Name>,<Inlet Node>,<Outlet Node>,<Loop Name>,<Loop Type>
! <Condenser Loop Supply Connection>,<Condenser Loop Name>,<Supply Side Outlet Node Name>,<Demand Side Inlet Node Name>
! <Condenser Loop Return Connection>,<Condenser Loop Name>,<Demand Side Outlet Node Name>,<Supply Side Inlet Node Name>
! ===============================================================
! <# Controlled Zones>,<Number of Controlled Zones>
 #Controlled Zones,2
! <Controlled Zone>,<Controlled Zone Name>,<Equip List Name>,<Control List Name>,<Zone Node Name>,<# Inlet Nodes>,<# Exhaust Nodes>,<# Return Nodes>
! <Controlled Zone Inlet>,<Inlet Node Count>,<Controlled Zone Name>,<Supply Air Inlet Node Name>,<SD Sys:Cooling/Heating [DD:Cooling] Inlet Node Name>,<DD Sys:Heating Inlet Node Name>
! <Controlled Zone Exhaust>,<Exhaust Node Count>,<Controlled Zone Name>,<Exhaust Air Node Name>
 Controlled Zone,LIVING ZONE,LIVING ZONE EQUIPMENT LIST,,NODE 1,2,0,2
   Controlled Zone Inlet,1,LIVING ZONE,NODE 32,NODE 34,N/A
   Controlled Zone Inlet,2,LIVING ZONE,NODE 46,NODE 48,N/A
   Controlled Zone Return,1,LIVING ZONE,NODE 33
   Controlled Zone Return,2,LIVING ZONE,NODE 47
 Controlled Zone,LIVING ZONE|UNIT 2,LIVING ZONE|UNIT 2 EQUIPMENT LIST,,NODE 2,2,0,2
   Controlled Zone Inlet,1,LIVING ZONE|UNIT 2,NODE 39,NODE 41,N/A
   Controlled Zone Inlet,2,LIVING ZONE|UNIT 2,NODE 53,NODE 55,N/A
   Controlled Zone Return,1,LIVING ZONE|UNIT 2,NODE 40
   Controlled Zone Return,2,LIVING ZONE|UNIT 2,NODE 54
! ===============================================================
! <#Zone Equipment Lists>,<Number of Zone Equipment Lists>
 #Zone Equipment Lists,2
! <Zone Equipment List>,<Zone Equipment List Count>,<Zone Equipment List Name>,<Zone Name>,<Number of Components>
! <Zone Equipment Component>,<Component Count>,<Component Type>,<Component Name>,<Zone Name>,<Heating Priority>,<Cooling Priority>
 Zone Equipment List,2,LIVING ZONE EQUIPMENT LIST,LIVING ZONE,2
   Zone Equipment Component,1,ZONEHVAC:AIRDISTRIBUTIONUNIT,ADU RES FUR GAS LIVING ZONE DIRECT AIR,LIVING ZONE,1,1
   Zone Equipment Component,2,ZONEHVAC:AIRDISTRIBUTIONUNIT,ADU RES AC LIVING ZONE DIRECT AIR,LIVING ZONE,2,2
 Zone Equipment List,3,LIVING ZONE|UNIT 2 EQUIPMENT LIST,LIVING ZONE|UNIT 2,2
   Zone Equipment Component,1,ZONEHVAC:AIRDISTRIBUTIONUNIT,ADU RES FUR GAS|UNIT 2 LIVING ZONE|UNIT 2 DIRECT AIR,LIVING ZONE|UNIT 2,1,1
   Zone Equipment Component,2,ZONEHVAC:AIRDISTRIBUTIONUNIT,ADU RES AC|UNIT 2 LIVING ZONE|UNIT 2 DIRECT AIR,LIVING ZONE|UNIT 2,2,2
! ===============================================================
! <#AirLoopHVACs>,<Number of AirLoopHVACs>
 #AirLoopHVACs,4
! <AirLoopHVAC>,<Air Loop Name>,<# Return Nodes>,<# Supply Nodes>,<# Zones Cooled>,<# Zones Heated>,<Outdoor Air Used>
! <AirLoop Return Connections>,<Connection Count>,<AirLoopHVAC Name>,<Zn Eqp Return Node #>,<Zn Eqp Return Node Name>,<AirLoop Return Node #>,<Air Loop Return Node Name>
! <AirLoop Supply Connections>,<Connection Count>,<AirLoopHVAC Name>,<Zn Eqp Supply Node #>,<Zn Eqp Supply Node Name>,<AirLoop Supply Node #>,<Air Loop Supply Node Name>
! <Cooled Zone Info>,<Cooled Zone Count>,<Cooled Zone Name>,<Cooled Zone Inlet Node #>,<Cooled Zone Inlet Node Name>,<AirLoopHVAC Name>
! <Heated Zone Info>,<Heated Zone Count>,<Heated Zone Name>,<Heated Zone Inlet Node #>,<Heated Zone Inlet Node Name>,<AirLoopHVAC Name>
! <Outdoor Air Connections>,<OA Inlet Node #>,<OA Return Air Inlet Node Name>,<OA Outlet Node #>,<OA Mixed Air Outlet Node Name>,<AirLoopHVAC Name>
! <AirLoopHVAC Connector>,<Connector Type>,<Connector Name>,<Loop Name>,<Loop Type>,<Number of Inlets/Outlets>
! <AirLoopHVAC Connector Branches>,<Connector Node Count>,<Connector Type>,<Connector Name>,<Inlet Branch>,<Outlet Branch>,<Loop Name>,<Loop Type>
! <AirLoopHVAC Connector Nodes>,<Connector Node Count>,<Connector Type>,<Connector Name>,<Inlet Node>,<Outlet Node>,<Loop Name>,<Loop Type>
 AirLoopHVAC,RES AC ASYS,1,1,1,0,No
   AirLoop Return Connections,1,RES AC ASYS,56,NODE 45,17,NODE 42
   AirLoop Supply Connections,1,RES AC ASYS,10,NODE 44,9,NODE 43
   Cooled Zone Info,1,LIVING ZONE,2,NODE 46,RES AC ASYS
 AirLoopHVAC,RES AC|UNIT 2 ASYS,1,1,1,0,No
   AirLoop Return Connections,1,RES AC|UNIT 2 ASYS,57,NODE 52,18,NODE 49
   AirLoop Supply Connections,1,RES AC|UNIT 2 ASYS,12,NODE 51,11,NODE 50
   Cooled Zone Info,1,LIVING ZONE|UNIT 2,6,NODE 53,RES AC|UNIT 2 ASYS
 AirLoopHVAC,RES FUR GAS ASYS,1,1,1,0,No
   AirLoop Return Connections,1,RES FUR GAS ASYS,58,NODE 31,19,NODE 28
   AirLoop Supply Connections,1,RES FUR GAS ASYS,14,NODE 30,13,NODE 29
   Cooled Zone Info,1,LIVING ZONE,1,NODE 32,RES FUR GAS ASYS
 AirLoopHVAC,RES FUR GAS|UNIT 2 ASYS,1,1,1,0,No
   AirLoop Return Connections,1,RES FUR GAS|UNIT 2 ASYS,59,NODE 38,20,NODE 35
   AirLoop Supply Connections,1,RES FUR GAS|UNIT 2 ASYS,16,NODE 37,15,NODE 36
   Cooled Zone Info,1,LIVING ZONE|UNIT 2,5,NODE 39,RES FUR GAS|UNIT 2 ASYS
! ===============================================================
! <#Parent Node Connections>,<Number of Parent Node Connections>
 #Parent Node Connections,86
! <Parent Node Connection>,<Node Name>,<Node ObjectType>,<Node ObjectName>,<Node ConnectionType>,<Node FluidStream>
 Parent Node Connection,NODE 42,BRANCH,RES AC ASYS MAIN BRANCH,Inlet,1
 Parent Node Connection,NODE 43,BRANCH,RES AC ASYS MAIN BRANCH,Outlet,1
 Parent Node Connection,NODE 49,BRANCH,RES AC|UNIT 2 ASYS MAIN BRANCH,Inlet,1
 Parent Node Connection,NODE 50,BRANCH,RES AC|UNIT 2 ASYS MAIN BRANCH,Outlet,1
 Parent Node Connection,NODE 28,BRANCH,RES FUR GAS ASYS MAIN BRANCH,Inlet,1
 Parent Node Connection,NODE 29,BRANCH,RES FUR GAS ASYS MAIN BRANCH,Outlet,1
 Parent Node Connection,NODE 35,BRANCH,RES FUR GAS|UNIT 2 ASYS MAIN BRANCH,Inlet,1
 Parent Node Connection,NODE 36,BRANCH,RES FUR GAS|UNIT 2 ASYS MAIN BRANCH,Outlet,1
 Parent Node Connection,NODE 4,BRANCH,DOMESTIC HOT WATER LOOP SUPPLY INLET BRANCH,Inlet,1
 Parent Node Connection,NODE 12,BRANCH,DOMESTIC HOT WATER LOOP SUPPLY INLET BRANCH,Outlet,1
 Parent Node Connection,NODE 6,BRANCH,DOMESTIC HOT WATER LOOP SUPPLY BRANCH 1,Inlet,1
 Parent Node Connection,NODE 10,BRANCH,DOMESTIC HOT WATER LOOP SUPPLY BRANCH 1,Outlet,1
 Parent Node Connection,NODE 13,BRANCH,DOMESTIC HOT WATER LOOP SUPPLY BRANCH 2,Inlet,1
 Parent Node Connection,NODE 14,BRANCH,DOMESTIC HOT WATER LOOP SUPPLY BRANCH 2,Outlet,1
 Parent Node Connection,NODE 11,BRANCH,DOMESTIC HOT WATER LOOP SUPPLY OUTLET BRANCH,Inlet,1
 Parent Node Connection,NODE 5,BRANCH,DOMESTIC HOT WATER LOOP SUPPLY OUTLET BRANCH,Outlet,1
 Parent Node Connection,NODE 7,BRANCH,DOMESTIC HOT WATER LOOP DEMAND INLET BRANCH,Inlet,1
 Parent Node Connection,DOMESTIC HOT WATER LOOP DEMAND INLET PIPE NODE,BRANCH,DOMESTIC HOT WATER LOOP DEMAND INLET BRANCH,Outlet,1
 Parent Node Connection,NODE 9,BRANCH,DOMESTIC HOT WATER LOOP DEMAND BRANCH 1,Inlet,1
 Parent Node Connection,NODE 26,BRANCH,DOMESTIC HOT WATER LOOP DEMAND BRANCH 1,Outlet,1
 Parent Node Connection,DOMESTIC HOT WATER LOOP DEMAND BYPASS PIPE INLET NODE,BRANCH,DOMESTIC HOT WATER LOOP DEMAND BYPASS BRANCH,Inlet,1
 Parent Node Connection,DOMESTIC HOT WATER LOOP DEMAND BYPASS PIPE OUTLET NODE,BRANCH,DOMESTIC HOT WATER LOOP DEMAND BYPASS BRANCH,Outlet,1
 Parent Node Connection,DOMESTIC HOT WATER LOOP DEMAND OUTLET PIPE NODE,BRANCH,DOMESTIC HOT WATER LOOP DEMAND OUTLET BRANCH,Inlet,1
 Parent Node Connection,NODE 8,BRANCH,DOMESTIC HOT WATER LOOP DEMAND OUTLET BRANCH,Outlet,1
 Parent Node Connection,NODE 15,BRANCH,DOMESTIC HOT WATER LOOP|UNIT 2 SUPPLY INLET BRANCH,Inlet,1
 Parent Node Connection,NODE 23,BRANCH,DOMESTIC HOT WATER LOOP|UNIT 2 SUPPLY INLET BRANCH,Outlet,1
 Parent Node Connection,NODE 17,BRANCH,DOMESTIC HOT WATER LOOP|UNIT 2 SUPPLY BRANCH 1,Inlet,1
 Parent Node Connection,NODE 21,BRANCH,DOMESTIC HOT WATER LOOP|UNIT 2 SUPPLY BRANCH 1,Outlet,1
 Parent Node Connection,NODE 24,BRANCH,DOMESTIC HOT WATER LOOP|UNIT 2 SUPPLY BRANCH 2,Inlet,1
 Parent Node Connection,NODE 25,BRANCH,DOMESTIC HOT WATER LOOP|UNIT 2 SUPPLY BRANCH 2,Outlet,1
 Parent Node Connection,NODE 22,BRANCH,DOMESTIC HOT WATER LOOP|UNIT 2 SUPPLY OUTLET BRANCH,Inlet,1
 Parent Node Connection,NODE 16,BRANCH,DOMESTIC HOT WATER LOOP|UNIT 2 SUPPLY OUTLET BRANCH,Outlet,1
 Parent Node Connection,NODE 18,BRANCH,DOMESTIC HOT WATER LOOP|UNIT 2 DEMAND INLET BRANCH,Inlet,1
 Parent Node Connection,DOMESTIC HOT WATER LOOP|UNIT 2 DEMAND INLET PIPE NODE,BRANCH,DOMESTIC HOT WATER LOOP|UNIT 2 DEMAND INLET BRANCH,Outlet,1
 Parent Node Connection,NODE 20,BRANCH,DOMESTIC HOT WATER LOOP|UNIT 2 DEMAND BRANCH 1,Inlet,1
 Parent Node Connection,NODE 27,BRANCH,DOMESTIC HOT WATER LOOP|UNIT 2 DEMAND BRANCH 1,Outlet,1
 Parent Node Connection,DOMESTIC HOT WATER LOOP|UNIT 2 DEMAND BYPASS PIPE INLET NODE,BRANCH,DOMESTIC HOT WATER LOOP|UNIT 2 DEMAND BYPASS BRANCH,Inlet,1
 Parent Node Connection,DOMESTIC HOT WATER LOOP|UNIT 2 DEMAND BYPASS PIPE OUTLET NODE,BRANCH,DOMESTIC HOT WATER LOOP|UNIT 2 DEMAND BYPASS BRANCH,Outlet,1
 Parent Node Connection,DOMESTIC HOT WATER LOOP|UNIT 2 DEMAND OUTLET PIPE NODE,BRANCH,DOMESTIC HOT WATER LOOP|UNIT 2 DEMAND OUTLET BRANCH,Inlet,1
 Parent Node Connection,NODE 19,BRANCH,DOMESTIC HOT WATER LOOP|UNIT 2 DEMAND OUTLET BRANCH,Outlet,1
 Parent Node Connection,NODE 4,PLANTLOOP,DOMESTIC HOT WATER LOOP,Inlet,1
 Parent Node Connection,NODE 5,PLANTLOOP,DOMESTIC HOT WATER LOOP,Outlet,1
 Parent Node Connection,NODE 7,PLANTLOOP,DOMESTIC HOT WATER LOOP,Inlet,1
 Parent Node Connection,NODE 8,PLANTLOOP,DOMESTIC HOT WATER LOOP,Outlet,1
 Parent Node Connection,NODE 5,PLANTLOOP,DOMESTIC HOT WATER LOOP,Sensor,1
 Parent Node Connection,NODE 15,PLANTLOOP,DOMESTIC HOT WATER LOOP|UNIT 2,Inlet,1
 Parent Node Connection,NODE 16,PLANTLOOP,DOMESTIC HOT WATER LOOP|UNIT 2,Outlet,1
 Parent Node Connection,NODE 18,PLANTLOOP,DOMESTIC HOT WATER LOOP|UNIT 2,Inlet,1
 Parent Node Connection,NODE 19,PLANTLOOP,DOMESTIC HOT WATER LOOP|UNIT 2,Outlet,1
 Parent Node Connection,NODE 16,PLANTLOOP,DOMESTIC HOT WATER LOOP|UNIT 2,Sensor,1
 Parent Node Connection,NODE 44,AIRLOOPHVAC:SUPPLYPATH,RES AC ASYS NODE 44 SUPPLY PATH,Inlet,1
 Parent Node Connection,NODE 51,AIRLOOPHVAC:SUPPLYPATH,RES AC|UNIT 2 ASYS NODE 51 SUPPLY PATH,Inlet,1
 Parent Node Connection,NODE 30,AIRLOOPHVAC:SUPPLYPATH,RES FUR GAS ASYS NODE 30 SUPPLY PATH,Inlet,1
 Parent Node Connection,NODE 37,AIRLOOPHVAC:SUPPLYPATH,RES FUR GAS|UNIT 2 ASYS NODE 37 SUPPLY PATH,Inlet,1
 Parent Node Connection,NODE 45,AIRLOOPHVAC:RETURNPATH,RES AC ASYS RETURN PATH,Outlet,1
 Parent Node Connection,NODE 52,AIRLOOPHVAC:RETURNPATH,RES AC|UNIT 2 ASYS RETURN PATH,Outlet,1
 Parent Node Connection,NODE 31,AIRLOOPHVAC:RETURNPATH,RES FUR GAS ASYS RETURN PATH,Outlet,1
 Parent Node Connection,NODE 38,AIRLOOPHVAC:RETURNPATH,RES FUR GAS|UNIT 2 ASYS RETURN PATH,Outlet,1
 Parent Node Connection,NODE 32,ZONEHVAC:AIRDISTRIBUTIONUNIT,ADU RES FUR GAS LIVING ZONE DIRECT AIR,Outlet,1
 Parent Node Connection,NODE 46,ZONEHVAC:AIRDISTRIBUTIONUNIT,ADU RES AC LIVING ZONE DIRECT AIR,Outlet,1
 Parent Node Connection,NODE 39,ZONEHVAC:AIRDISTRIBUTIONUNIT,ADU RES FUR GAS|UNIT 2 LIVING ZONE|UNIT 2 DIRECT AIR,Outlet,1
 Parent Node Connection,NODE 53,ZONEHVAC:AIRDISTRIBUTIONUNIT,ADU RES AC|UNIT 2 LIVING ZONE|UNIT 2 DIRECT AIR,Outlet,1
 Parent Node Connection,NODE 42,AIRLOOPHVAC,RES AC ASYS,Inlet,1
 Parent Node Connection,NODE 45,AIRLOOPHVAC,RES AC ASYS,Outlet,1
 Parent Node Connection,NODE 44,AIRLOOPHVAC,RES AC ASYS,Inlet,1
 Parent Node Connection,NODE 43,AIRLOOPHVAC,RES AC ASYS,Outlet,1
 Parent Node Connection,NODE 49,AIRLOOPHVAC,RES AC|UNIT 2 ASYS,Inlet,1
 Parent Node Connection,NODE 52,AIRLOOPHVAC,RES AC|UNIT 2 ASYS,Outlet,1
 Parent Node Connection,NODE 51,AIRLOOPHVAC,RES AC|UNIT 2 ASYS,Inlet,1
 Parent Node Connection,NODE 50,AIRLOOPHVAC,RES AC|UNIT 2 ASYS,Outlet,1
 Parent Node Connection,NODE 28,AIRLOOPHVAC,RES FUR GAS ASYS,Inlet,1
 Parent Node Connection,NODE 31,AIRLOOPHVAC,RES FUR GAS ASYS,Outlet,1
 Parent Node Connection,NODE 30,AIRLOOPHVAC,RES FUR GAS ASYS,Inlet,1
 Parent Node Connection,NODE 29,AIRLOOPHVAC,RES FUR GAS ASYS,Outlet,1
 Parent Node Connection,NODE 35,AIRLOOPHVAC,RES FUR GAS|UNIT 2 ASYS,Inlet,1
 Parent Node Connection,NODE 38,AIRLOOPHVAC,RES FUR GAS|UNIT 2 ASYS,Outlet,1
 Parent Node Connection,NODE 37,AIRLOOPHVAC,RES FUR GAS|UNIT 2 ASYS,Inlet,1
 Parent Node Connection,NODE 36,AIRLOOPHVAC,RES FUR GAS|UNIT 2 ASYS,Outlet,1
 Parent Node Connection,NODE 42,AIRLOOPHVAC:UNITARYSYSTEM,RES AC UNITARY SYSTEM,Inlet,1
 Parent Node Connection,NODE 43,AIRLOOPHVAC:UNITARYSYSTEM,RES AC UNITARY SYSTEM,Outlet,1
 Parent Node Connection,NODE 49,AIRLOOPHVAC:UNITARYSYSTEM,RES AC|UNIT 2 UNITARY SYSTEM,Inlet,1
 Parent Node Connection,NODE 50,AIRLOOPHVAC:UNITARYSYSTEM,RES AC|UNIT 2 UNITARY SYSTEM,Outlet,1
 Parent Node Connection,NODE 28,AIRLOOPHVAC:UNITARYSYSTEM,RES FUR GAS UNITARY SYSTEM,Inlet,1
 Parent Node Connection,NODE 29,AIRLOOPHVAC:UNITARYSYSTEM,RES FUR GAS UNITARY SYSTEM,Outlet,1
 Parent Node Connection,NODE 35,AIRLOOPHVAC:UNITARYSYSTEM,RES FUR GAS|UNIT 2 UNITARY SYSTEM,Inlet,1
 Parent Node Connection,NODE 36,AIRLOOPHVAC:UNITARYSYSTEM,RES FUR GAS|UNIT 2 UNITARY SYSTEM,Outlet,1
! ===============================================================
! <#Non-Parent Node Connections>,<Number of Non-Parent Node Connections>
 #Non-Parent Node Connections,109
! <Non-Parent Node Connection>,<Node Name>,<Node ObjectType>,<Node ObjectName>,<Node ConnectionType>,<Node FluidStream>
 Non-Parent Node Connection,MODEL OUTDOOR AIR NODE,OUTDOORAIR:NODE,OutdoorAir:Node,OutdoorAir,1
 Non-Parent Node Connection,NODE 5,SETPOINTMANAGER:SCHEDULED,SETPOINT MANAGER SCHEDULED 1,Setpoint,1
 Non-Parent Node Connection,NODE 16,SETPOINTMANAGER:SCHEDULED,SETPOINT MANAGER SCHEDULED 2,Setpoint,1
 Non-Parent Node Connection,NODE 6,PIPE:ADIABATIC,PIPE ADIABATIC 1,Inlet,1
 Non-Parent Node Connection,NODE 10,PIPE:ADIABATIC,PIPE ADIABATIC 1,Outlet,1
 Non-Parent Node Connection,NODE 11,PIPE:ADIABATIC,PIPE ADIABATIC 2,Inlet,1
 Non-Parent Node Connection,NODE 5,PIPE:ADIABATIC,PIPE ADIABATIC 2,Outlet,1
 Non-Parent Node Connection,NODE 7,PIPE:ADIABATIC,DOMESTIC HOT WATER LOOP DEMAND INLET PIPE,Inlet,1
 Non-Parent Node Connection,DOMESTIC HOT WATER LOOP DEMAND INLET PIPE NODE,PIPE:ADIABATIC,DOMESTIC HOT WATER LOOP DEMAND INLET PIPE,Outlet,1
 Non-Parent Node Connection,DOMESTIC HOT WATER LOOP DEMAND BYPASS PIPE INLET NODE,PIPE:ADIABATIC,DOMESTIC HOT WATER LOOP DEMAND BYPASS PIPE,Inlet,1
 Non-Parent Node Connection,DOMESTIC HOT WATER LOOP DEMAND BYPASS PIPE OUTLET NODE,PIPE:ADIABATIC,DOMESTIC HOT WATER LOOP DEMAND BYPASS PIPE,Outlet,1
 Non-Parent Node Connection,DOMESTIC HOT WATER LOOP DEMAND OUTLET PIPE NODE,PIPE:ADIABATIC,DOMESTIC HOT WATER LOOP DEMAND OUTLET PIPE,Inlet,1
 Non-Parent Node Connection,NODE 8,PIPE:ADIABATIC,DOMESTIC HOT WATER LOOP DEMAND OUTLET PIPE,Outlet,1
 Non-Parent Node Connection,NODE 17,PIPE:ADIABATIC,PIPE ADIABATIC 3,Inlet,1
 Non-Parent Node Connection,NODE 21,PIPE:ADIABATIC,PIPE ADIABATIC 3,Outlet,1
 Non-Parent Node Connection,NODE 22,PIPE:ADIABATIC,PIPE ADIABATIC 4,Inlet,1
 Non-Parent Node Connection,NODE 16,PIPE:ADIABATIC,PIPE ADIABATIC 4,Outlet,1
 Non-Parent Node Connection,NODE 18,PIPE:ADIABATIC,DOMESTIC HOT WATER LOOP|UNIT 2 DEMAND INLET PIPE,Inlet,1
 Non-Parent Node Connection,DOMESTIC HOT WATER LOOP|UNIT 2 DEMAND INLET PIPE NODE,PIPE:ADIABATIC,DOMESTIC HOT WATER LOOP|UNIT 2 DEMAND INLET PIPE,Outlet,1
 Non-Parent Node Connection,DOMESTIC HOT WATER LOOP|UNIT 2 DEMAND BYPASS PIPE INLET NODE,PIPE:ADIABATIC,DOMESTIC HOT WATER LOOP|UNIT 2 DEMAND BYPASS PIPE,Inlet,1
 Non-Parent Node Connection,DOMESTIC HOT WATER LOOP|UNIT 2 DEMAND BYPASS PIPE OUTLET NODE,PIPE:ADIABATIC,DOMESTIC HOT WATER LOOP|UNIT 2 DEMAND BYPASS PIPE,Outlet,1
 Non-Parent Node Connection,DOMESTIC HOT WATER LOOP|UNIT 2 DEMAND OUTLET PIPE NODE,PIPE:ADIABATIC,DOMESTIC HOT WATER LOOP|UNIT 2 DEMAND OUTLET PIPE,Inlet,1
 Non-Parent Node Connection,NODE 19,PIPE:ADIABATIC,DOMESTIC HOT WATER LOOP|UNIT 2 DEMAND OUTLET PIPE,Outlet,1
 Non-Parent Node Connection,DOMESTIC HOT WATER LOOP DEMAND INLET PIPE NODE,CONNECTOR:SPLITTER,DOMESTIC HOT WATER LOOP DEMAND SPLITTER,Inlet,1
 Non-Parent Node Connection,NODE 9,CONNECTOR:SPLITTER,DOMESTIC HOT WATER LOOP DEMAND SPLITTER,Outlet,1
 Non-Parent Node Connection,DOMESTIC HOT WATER LOOP DEMAND BYPASS PIPE INLET NODE,CONNECTOR:SPLITTER,DOMESTIC HOT WATER LOOP DEMAND SPLITTER,Outlet,1
 Non-Parent Node Connection,DOMESTIC HOT WATER LOOP DEMAND OUTLET PIPE NODE,CONNECTOR:MIXER,DOMESTIC HOT WATER LOOP DEMAND MIXER,Outlet,1
 Non-Parent Node Connection,NODE 26,CONNECTOR:MIXER,DOMESTIC HOT WATER LOOP DEMAND MIXER,Inlet,1
 Non-Parent Node Connection,DOMESTIC HOT WATER LOOP DEMAND BYPASS PIPE OUTLET NODE,CONNECTOR:MIXER,DOMESTIC HOT WATER LOOP DEMAND MIXER,Inlet,1
 Non-Parent Node Connection,NODE 12,CONNECTOR:SPLITTER,DOMESTIC HOT WATER LOOP SUPPLY SPLITTER,Inlet,1
 Non-Parent Node Connection,NODE 6,CONNECTOR:SPLITTER,DOMESTIC HOT WATER LOOP SUPPLY SPLITTER,Outlet,1
 Non-Parent Node Connection,NODE 13,CONNECTOR:SPLITTER,DOMESTIC HOT WATER LOOP SUPPLY SPLITTER,Outlet,1
 Non-Parent Node Connection,NODE 11,CONNECTOR:MIXER,DOMESTIC HOT WATER LOOP SUPPLY MIXER,Outlet,1
 Non-Parent Node Connection,NODE 10,CONNECTOR:MIXER,DOMESTIC HOT WATER LOOP SUPPLY MIXER,Inlet,1
 Non-Parent Node Connection,NODE 14,CONNECTOR:MIXER,DOMESTIC HOT WATER LOOP SUPPLY MIXER,Inlet,1
 Non-Parent Node Connection,DOMESTIC HOT WATER LOOP|UNIT 2 DEMAND INLET PIPE NODE,CONNECTOR:SPLITTER,DOMESTIC HOT WATER LOOP|UNIT 2 DEMAND SPLITTER,Inlet,1
 Non-Parent Node Connection,NODE 20,CONNECTOR:SPLITTER,DOMESTIC HOT WATER LOOP|UNIT 2 DEMAND SPLITTER,Outlet,1
 Non-Parent Node Connection,DOMESTIC HOT WATER LOOP|UNIT 2 DEMAND BYPASS PIPE INLET NODE,CONNECTOR:SPLITTER,DOMESTIC HOT WATER LOOP|UNIT 2 DEMAND SPLITTER,Outlet,1
 Non-Parent Node Connection,DOMESTIC HOT WATER LOOP|UNIT 2 DEMAND OUTLET PIPE NODE,CONNECTOR:MIXER,DOMESTIC HOT WATER LOOP|UNIT 2 DEMAND MIXER,Outlet,1
 Non-Parent Node Connection,NODE 27,CONNECTOR:MIXER,DOMESTIC HOT WATER LOOP|UNIT 2 DEMAND MIXER,Inlet,1
 Non-Parent Node Connection,DOMESTIC HOT WATER LOOP|UNIT 2 DEMAND BYPASS PIPE OUTLET NODE,CONNECTOR:MIXER,DOMESTIC HOT WATER LOOP|UNIT 2 DEMAND MIXER,Inlet,1
 Non-Parent Node Connection,NODE 23,CONNECTOR:SPLITTER,DOMESTIC HOT WATER LOOP|UNIT 2 SUPPLY SPLITTER,Inlet,1
 Non-Parent Node Connection,NODE 17,CONNECTOR:SPLITTER,DOMESTIC HOT WATER LOOP|UNIT 2 SUPPLY SPLITTER,Outlet,1
 Non-Parent Node Connection,NODE 24,CONNECTOR:SPLITTER,DOMESTIC HOT WATER LOOP|UNIT 2 SUPPLY SPLITTER,Outlet,1
 Non-Parent Node Connection,NODE 22,CONNECTOR:MIXER,DOMESTIC HOT WATER LOOP|UNIT 2 SUPPLY MIXER,Outlet,1
 Non-Parent Node Connection,NODE 21,CONNECTOR:MIXER,DOMESTIC HOT WATER LOOP|UNIT 2 SUPPLY MIXER,Inlet,1
 Non-Parent Node Connection,NODE 25,CONNECTOR:MIXER,DOMESTIC HOT WATER LOOP|UNIT 2 SUPPLY MIXER,Inlet,1
 Non-Parent Node Connection,NODE 1,ZONEHVAC:EQUIPMENTCONNECTIONS,LIVING ZONE,ZoneNode,1
 Non-Parent Node Connection,NODE 32,ZONEHVAC:EQUIPMENTCONNECTIONS,LIVING ZONE,ZoneInlet,1
 Non-Parent Node Connection,NODE 46,ZONEHVAC:EQUIPMENTCONNECTIONS,LIVING ZONE,ZoneInlet,1
 Non-Parent Node Connection,NODE 33,ZONEHVAC:EQUIPMENTCONNECTIONS,LIVING ZONE,ZoneReturn,1
 Non-Parent Node Connection,NODE 47,ZONEHVAC:EQUIPMENTCONNECTIONS,LIVING ZONE,ZoneReturn,1
 Non-Parent Node Connection,NODE 2,ZONEHVAC:EQUIPMENTCONNECTIONS,LIVING ZONE|UNIT 2,ZoneNode,1
 Non-Parent Node Connection,NODE 39,ZONEHVAC:EQUIPMENTCONNECTIONS,LIVING ZONE|UNIT 2,ZoneInlet,1
 Non-Parent Node Connection,NODE 53,ZONEHVAC:EQUIPMENTCONNECTIONS,LIVING ZONE|UNIT 2,ZoneInlet,1
 Non-Parent Node Connection,NODE 40,ZONEHVAC:EQUIPMENTCONNECTIONS,LIVING ZONE|UNIT 2,ZoneReturn,1
 Non-Parent Node Connection,NODE 54,ZONEHVAC:EQUIPMENTCONNECTIONS,LIVING ZONE|UNIT 2,ZoneReturn,1
 Non-Parent Node Connection,NODE 44,AIRLOOPHVAC:ZONESPLITTER,RES AC ZONE SPLITTER,Inlet,1
 Non-Parent Node Connection,NODE 48,AIRLOOPHVAC:ZONESPLITTER,RES AC ZONE SPLITTER,Outlet,1
 Non-Parent Node Connection,NODE 51,AIRLOOPHVAC:ZONESPLITTER,RES AC|UNIT 2 ZONE SPLITTER,Inlet,1
 Non-Parent Node Connection,NODE 55,AIRLOOPHVAC:ZONESPLITTER,RES AC|UNIT 2 ZONE SPLITTER,Outlet,1
 Non-Parent Node Connection,NODE 30,AIRLOOPHVAC:ZONESPLITTER,RES FUR GAS ZONE SPLITTER,Inlet,1
 Non-Parent Node Connection,NODE 34,AIRLOOPHVAC:ZONESPLITTER,RES FUR GAS ZONE SPLITTER,Outlet,1
 Non-Parent Node Connection,NODE 37,AIRLOOPHVAC:ZONESPLITTER,RES FUR GAS|UNIT 2 ZONE SPLITTER,Inlet,1
 Non-Parent Node Connection,NODE 41,AIRLOOPHVAC:ZONESPLITTER,RES FUR GAS|UNIT 2 ZONE SPLITTER,Outlet,1
 Non-Parent Node Connection,NODE 34,AIRTERMINAL:SINGLEDUCT:CONSTANTVOLUME:NOREHEAT,RES FUR GAS LIVING ZONE DIRECT AIR,Inlet,1
 Non-Parent Node Connection,NODE 32,AIRTERMINAL:SINGLEDUCT:CONSTANTVOLUME:NOREHEAT,RES FUR GAS LIVING ZONE DIRECT AIR,Outlet,1
 Non-Parent Node Connection,NODE 48,AIRTERMINAL:SINGLEDUCT:CONSTANTVOLUME:NOREHEAT,RES AC LIVING ZONE DIRECT AIR,Inlet,1
 Non-Parent Node Connection,NODE 46,AIRTERMINAL:SINGLEDUCT:CONSTANTVOLUME:NOREHEAT,RES AC LIVING ZONE DIRECT AIR,Outlet,1
 Non-Parent Node Connection,NODE 41,AIRTERMINAL:SINGLEDUCT:CONSTANTVOLUME:NOREHEAT,RES FUR GAS|UNIT 2 LIVING ZONE|UNIT 2 DIRECT AIR,Inlet,1
 Non-Parent Node Connection,NODE 39,AIRTERMINAL:SINGLEDUCT:CONSTANTVOLUME:NOREHEAT,RES FUR GAS|UNIT 2 LIVING ZONE|UNIT 2 DIRECT AIR,Outlet,1
 Non-Parent Node Connection,NODE 55,AIRTERMINAL:SINGLEDUCT:CONSTANTVOLUME:NOREHEAT,RES AC|UNIT 2 LIVING ZONE|UNIT 2 DIRECT AIR,Inlet,1
 Non-Parent Node Connection,NODE 53,AIRTERMINAL:SINGLEDUCT:CONSTANTVOLUME:NOREHEAT,RES AC|UNIT 2 LIVING ZONE|UNIT 2 DIRECT AIR,Outlet,1
 Non-Parent Node Connection,NODE 45,AIRLOOPHVAC:ZONEMIXER,RES AC ZONE MIXER,Outlet,1
 Non-Parent Node Connection,NODE 47,AIRLOOPHVAC:ZONEMIXER,RES AC ZONE MIXER,Inlet,1
 Non-Parent Node Connection,NODE 52,AIRLOOPHVAC:ZONEMIXER,RES AC|UNIT 2 ZONE MIXER,Outlet,1
 Non-Parent Node Connection,NODE 54,AIRLOOPHVAC:ZONEMIXER,RES AC|UNIT 2 ZONE MIXER,Inlet,1
 Non-Parent Node Connection,NODE 31,AIRLOOPHVAC:ZONEMIXER,RES FUR GAS ZONE MIXER,Outlet,1
 Non-Parent Node Connection,NODE 33,AIRLOOPHVAC:ZONEMIXER,RES FUR GAS ZONE MIXER,Inlet,1
 Non-Parent Node Connection,NODE 38,AIRLOOPHVAC:ZONEMIXER,RES FUR GAS|UNIT 2 ZONE MIXER,Outlet,1
 Non-Parent Node Connection,NODE 40,AIRLOOPHVAC:ZONEMIXER,RES FUR GAS|UNIT 2 ZONE MIXER,Inlet,1
 Non-Parent Node Connection,NODE 42,FAN:ONOFF,RES AC CLG SUPPLY FAN,Inlet,1
 Non-Parent Node Connection,RES AC UNITARY SYSTEM FAN - COOLING COIL NODE,FAN:ONOFF,RES AC CLG SUPPLY FAN,Outlet,1
 Non-Parent Node Connection,NODE 49,FAN:ONOFF,RES AC|UNIT 2 CLG SUPPLY FAN,Inlet,1
 Non-Parent Node Connection,RES AC|UNIT 2 UNITARY SYSTEM FAN - COOLING COIL NODE,FAN:ONOFF,RES AC|UNIT 2 CLG SUPPLY FAN,Outlet,1
 Non-Parent Node Connection,NODE 28,FAN:ONOFF,RES FUR GAS HTG SUPPLY FAN,Inlet,1
 Non-Parent Node Connection,RES FUR GAS UNITARY SYSTEM FAN - HEATING COIL NODE,FAN:ONOFF,RES FUR GAS HTG SUPPLY FAN,Outlet,1
 Non-Parent Node Connection,NODE 35,FAN:ONOFF,RES FUR GAS|UNIT 2 HTG SUPPLY FAN,Inlet,1
 Non-Parent Node Connection,RES FUR GAS|UNIT 2 UNITARY SYSTEM FAN - HEATING COIL NODE,FAN:ONOFF,RES FUR GAS|UNIT 2 HTG SUPPLY FAN,Outlet,1
 Non-Parent Node Connection,RES AC UNITARY SYSTEM FAN - COOLING COIL NODE,COIL:COOLING:DX:SINGLESPEED,RES AC COOLING COIL,Inlet,1
 Non-Parent Node Connection,NODE 43,COIL:COOLING:DX:SINGLESPEED,RES AC COOLING COIL,Outlet,1
 Non-Parent Node Connection,RES AC|UNIT 2 UNITARY SYSTEM FAN - COOLING COIL NODE,COIL:COOLING:DX:SINGLESPEED,RES AC|UNIT 2 COOLING COIL,Inlet,1
 Non-Parent Node Connection,NODE 50,COIL:COOLING:DX:SINGLESPEED,RES AC|UNIT 2 COOLING COIL,Outlet,1
 Non-Parent Node Connection,RES FUR GAS UNITARY SYSTEM FAN - HEATING COIL NODE,COIL:HEATING:FUEL,RES FUR GAS HEATING COIL,Inlet,1
 Non-Parent Node Connection,NODE 29,COIL:HEATING:FUEL,RES FUR GAS HEATING COIL,Outlet,1
 Non-Parent Node Connection,RES FUR GAS|UNIT 2 UNITARY SYSTEM FAN - HEATING COIL NODE,COIL:HEATING:FUEL,RES FUR GAS|UNIT 2 HEATING COIL,Inlet,1
 Non-Parent Node Connection,NODE 36,COIL:HEATING:FUEL,RES FUR GAS|UNIT 2 HEATING COIL,Outlet,1
 Non-Parent Node Connection,NODE 9,WATERUSE:CONNECTIONS,WATER USE CONNECTIONS 1,Inlet,1
 Non-Parent Node Connection,NODE 26,WATERUSE:CONNECTIONS,WATER USE CONNECTIONS 1,Outlet,1
 Non-Parent Node Connection,NODE 20,WATERUSE:CONNECTIONS,WATER USE CONNECTIONS 2,Inlet,1
 Non-Parent Node Connection,NODE 27,WATERUSE:CONNECTIONS,WATER USE CONNECTIONS 2,Outlet,1
 Non-Parent Node Connection,NODE 13,WATERHEATER:MIXED,RES WH,Inlet,1
 Non-Parent Node Connection,NODE 14,WATERHEATER:MIXED,RES WH,Outlet,1
 Non-Parent Node Connection,NODE 24,WATERHEATER:MIXED,RES WH|UNIT 2,Inlet,1
 Non-Parent Node Connection,NODE 25,WATERHEATER:MIXED,RES WH|UNIT 2,Outlet,1
 Non-Parent Node Connection,NODE 4,PUMP:VARIABLESPEED,PUMP VARIABLE SPEED 1,Inlet,1
 Non-Parent Node Connection,NODE 12,PUMP:VARIABLESPEED,PUMP VARIABLE SPEED 1,Outlet,1
 Non-Parent Node Connection,NODE 15,PUMP:VARIABLESPEED,PUMP VARIABLE SPEED 2,Inlet,1
 Non-Parent Node Connection,NODE 23,PUMP:VARIABLESPEED,PUMP VARIABLE SPEED 2,Outlet,1
