{
   "completed_at" : "20200409T201621Z",
   "completed_status" : "Success",
   "current_step" : 29,
   "eplusout_err" : "Program Version,EnergyPlus, Version 9.2.0-921312fa1d, YMD=2020.04.09 14:15,\n   ** Warning ** GetVertices: Roof/Ceiling is not oriented correctly! Tilt angle=[90.0], should be near 0, Surface=\"SURFACE 14\", in Zone=\"UNFINISHED ATTIC ZONE\".\n   ** Warning ** GetSurfaceData: Entered Zone Floor Areas differ from calculated Zone Floor Area(s).\n   **   ~~~   ** ...use Output:Diagnostics,DisplayExtraWarnings; to show more details on individual zones.\n   ************* Note that the following warning(s) may/will occur if you have not enclosed your zone completely.\n   ** Warning ** Entered Zone Volumes differ from calculated zone volume(s).\n   **   ~~~   ** ...use Output:Diagnostics,DisplayExtraWarnings; to show more details on individual zones.\n   ** Warning ** CalculateZoneVolume: 1 zone is not fully enclosed. For more details use:  Output:Diagnostics,DisplayExtrawarnings; \n   ** Warning ** GetDXCoils: Coil:Heating:DX:SingleSpeed=\"RES ASHP HTG COIL\" curve values\n   **   ~~~   ** ... Defrost Energy Input Ratio Function of Temperature Curve Name = DEFROSTEIR output is not equal to 1.0 (+ or - 10%) at rated conditions.\n   **   ~~~   ** ... Curve output at rated conditions = 0.152\n   ** Warning ** The Standard Ratings is calculated for Coil:Cooling:DX:SingleSpeed = RES ASHP CLG COIL but not at the AHRI test condition due to curve out of bound.\n   **   ~~~   **  Review the Standard Ratings calculations in the Engineering Reference for this coil type. Also, use Output:Diagnostics, DisplayExtraWarnings for further guidance.\n   ** Warning ** Check input. Pump nominal power or motor efficiency is set to 0, for pump=PUMP VARIABLE SPEED 1\n   ** Warning ** Output:Meter: invalid Key Name=\"DISTRICTCOOLING:FACILITY\" - not found.\n   ** Warning ** Output:Meter: invalid Key Name=\"DISTRICTHEATING:FACILITY\" - not found.\n   ** Warning ** Output:Meter:MeterFileOnly requested for \"Electricity:Facility\" (TimeStep), already on \"Output:Meter\". Will report to both eplusout.eso and eplusout.mtr\n   ************* Testing Individual Branch Integrity\n   ************* All Branches passed integrity testing\n   ************* Testing Individual Supply Air Path Integrity\n   ************* All Supply Air Paths passed integrity testing\n   ************* Testing Individual Return Air Path Integrity\n   ************* All Return Air Paths passed integrity testing\n   ************* No node connection errors were found.\n   ************* Beginning Simulation\n   ** Warning ** Processing Monthly Tabular Reports: Variable names not valid for this simulation\n   **   ~~~   ** ...use Output:Diagnostics,DisplayExtraWarnings; to show more details on individual variables.\n   ** Warning ** CalcDoe2DXCoil: Coil:Cooling:DX:SingleSpeed=\"RES ASHP CLG COIL\" - Air volume flow rate per watt of rated total cooling capacity is out of range at 6.781E-005 m3/s/W.\n   **   ~~~   **  Environment=RUN PERIOD 1, at Simulation time=01/03 10:18 - 10:20\n   **   ~~~   ** Expected range for VolumeFlowPerRatedTotalCapacity=[2.684E-005--6.713E-005]\n   **   ~~~   ** Possible causes include inconsistent air flow rates in system components,\n   **   ~~~   ** or variable air volume [VAV] system using incorrect coil type.\n   ** Warning ** SimHVAC: Maximum iterations (20) exceeded for all HVAC loops, at RUN PERIOD 1, 01/05 06:55 - 06:60\n   **   ~~~   ** The solution for one or more of the Air Loop HVAC systems did not appear to converge\n   **   ~~~   ** ...use Output:Diagnostics,DisplayExtraWarnings; to show more details on each max iteration exceeded.\n   ** Warning ** SimHVAC: Maximum iterations (20) exceeded for all HVAC loops, at RUN PERIOD 1, 01/05 15:00 - 15:05\n   **   ~~~   ** The solution for one or more of the Air Loop HVAC systems did not appear to converge\n   ** Warning ** SimHVAC: Maximum iterations (20) exceeded for all HVAC loops, at RUN PERIOD 1, 01/11 19:00 - 19:10\n   **   ~~~   ** The solution for one or more of the Air Loop HVAC systems did not appear to converge\n   ** Warning ** SimHVAC: Maximum iterations (20) exceeded for all HVAC loops, at RUN PERIOD 1, 01/14 12:20 - 12:30\n   **   ~~~   ** The solution for one or more of the Air Loop HVAC systems did not appear to converge\n   ** Warning ** SimHVAC: Maximum iterations (20) exceeded for all HVAC loops, at RUN PERIOD 1, 01/14 14:10 - 14:20\n   **   ~~~   ** The solution for one or more of the Air Loop HVAC systems did not appear to converge\n   ** Warning ** SimHVAC: Maximum iterations (20) exceeded for all HVAC loops, at RUN PERIOD 1, 01/14 18:20 - 18:30\n   **   ~~~   ** The solution for one or more of the Air Loop HVAC systems did not appear to converge\n   ** Warning ** SimHVAC: Maximum iterations (20) exceeded for all HVAC loops, at RUN PERIOD 1, 01/15 09:38 - 09:40\n   **   ~~~   ** The solution for one or more of the Air Loop HVAC systems did not appear to converge\n   ** Warning ** SimHVAC: Maximum iterations (20) exceeded for all HVAC loops, at RUN PERIOD 1, 01/19 08:40 - 08:50\n   **   ~~~   ** The solution for one or more of the Air Loop HVAC systems did not appear to converge\n   ** Warning ** SimHVAC: Maximum iterations (20) exceeded for all HVAC loops, at RUN PERIOD 1, 01/19 08:40 - 08:45\n   **   ~~~   ** The solution for one or more of the Air Loop HVAC systems did not appear to converge\n   ** Warning ** SimHVAC: Maximum iterations (20) exceeded for all HVAC loops, at RUN PERIOD 1, 01/21 13:50 - 14:00\n   **   ~~~   ** The solution for one or more of the Air Loop HVAC systems did not appear to converge\n   ** Warning ** SimHVAC: Maximum iterations (20) exceeded for all HVAC loops, at RUN PERIOD 1, 01/21 14:00 - 14:10\n   **   ~~~   ** The solution for one or more of the Air Loop HVAC systems did not appear to converge\n   ** Warning ** SimHVAC: Maximum iterations (20) exceeded for all HVAC loops, at RUN PERIOD 1, 01/21 14:10 - 14:20\n   **   ~~~   ** The solution for one or more of the Air Loop HVAC systems did not appear to converge\n   ** Warning ** SimHVAC: Maximum iterations (20) exceeded for all HVAC loops, at RUN PERIOD 1, 01/21 14:20 - 14:30\n   **   ~~~   ** The solution for one or more of the Air Loop HVAC systems did not appear to converge\n   ** Warning ** SimHVAC: Maximum iterations (20) exceeded for all HVAC loops, at RUN PERIOD 1, 01/21 18:00 - 18:10\n   **   ~~~   ** The solution for one or more of the Air Loop HVAC systems did not appear to converge\n   ** Warning ** The resource referenced by LifeCycleCost:UsePriceEscalation= \"U.S. AVG  COMMERCIAL-ELECTRICITY\" has no energy cost. \n   **   ~~~   ** ... It is likely that the wrong resource is used. The resource should match the meter used in Utility:Tariff.\n   ** Warning ** The resource referenced by LifeCycleCost:UsePriceEscalation= \"U.S. AVG  COMMERCIAL-DISTILLATE OIL\" has no energy cost. \n   **   ~~~   ** ... It is likely that the wrong resource is used. The resource should match the meter used in Utility:Tariff.\n   ** Warning ** The resource referenced by LifeCycleCost:UsePriceEscalation= \"U.S. AVG  COMMERCIAL-RESIDUAL OIL\" has no energy cost. \n   **   ~~~   ** ... It is likely that the wrong resource is used. The resource should match the meter used in Utility:Tariff.\n   ** Warning ** The resource referenced by LifeCycleCost:UsePriceEscalation= \"U.S. AVG  COMMERCIAL-NATURAL GAS\" has no energy cost. \n   **   ~~~   ** ... It is likely that the wrong resource is used. The resource should match the meter used in Utility:Tariff.\n   ** Warning ** The resource referenced by LifeCycleCost:UsePriceEscalation= \"U.S. AVG  COMMERCIAL-COAL\" has no energy cost. \n   **   ~~~   ** ... It is likely that the wrong resource is used. The resource should match the meter used in Utility:Tariff.\n   ************* Simulation Error Summary *************\n   ************* There are 2 unused schedules in input.\n   ************* There are 44 unused week schedules in input.\n   ************* There are 26 unused day schedules in input.\n   ************* Use Output:Diagnostics,DisplayUnusedSchedules; to see them.\n   *************\n   ************* ===== Recurring Surface Error Summary =====\n   ************* The following surface error messages occurred.\n   *************\n   ************* Base Surface does not surround subsurface errors occuring...\n   ************* Check that the GlobalGeometryRules object is expressing the proper starting corner and direction [CounterClockwise/Clockwise]\n   *************\n   ** Warning ** Base surface does not surround subsurface (CHKSBS), Overlap Status=No-Overlap\n   **   ~~~   **   The base surround errors occurred 1 times.\n   **   ~~~   ** Surface \"SURFACE 24\" misses SubSurface \"UNIT 1 - SURFACE 5 - DOOR\"\n   *************\n   **   ~~~   **   The base surround errors occurred 1 times (total).\n   *************\n   *************\n   ************* ===== Recurring Error Summary =====\n   ************* The following recurring error messages occurred.\n   *************\n   *************  ** Warning ** CalcDoe2DXCoil: Coil:Cooling:DX:SingleSpeed=\"RES ASHP CLG COIL\" - Air volume flow rate per watt of rated total cooling capacity is out of range error continues...\n   *************  **   ~~~   **   This error occurred 1024552 total times;\n   *************  **   ~~~   **   during Warmup 0 times;\n   *************  **   ~~~   **   during Sizing 0 times.\n   *************  **   ~~~   **   Max=7.006890E-005  Min=6.730211E-005\n   *************\n   *************  ** Warning ** SimHVAC: Exceeding Maximum iterations for all HVAC loops, during RUN PERIOD 1 continues\n   *************  **   ~~~   **   This error occurred 238 total times;\n   *************  **   ~~~   **   during Warmup 0 times;\n   *************  **   ~~~   **   during Sizing 0 times.\n   *************\n   ************* EnergyPlus Warmup Error Summary. During Warmup: 0 Warning; 0 Severe Errors.\n   ************* EnergyPlus Sizing Error Summary. During Sizing: 0 Warning; 0 Severe Errors.\n   ************* EnergyPlus Completed Successfully-- 1024821 Warning; 0 Severe Errors; Elapsed Time=00hr 00min 46.26sec\n",
   "file_paths" : [
      "C:/Users/aspeake/Documents/OpenStudio-BuildStock/workflows/singleunit_osw/SFA/generated_files",
      "./files",
      "./weather",
      "../../files",
      "../../weather",
      "./"
   ],
   "hash" : "2C3DA90F",
   "measure_paths" : [ "../../../measures", "../../../resources/measures" ],
   "started_at" : "20200409T201522Z",
   "steps" : [
      {
         "arguments" : {
            "begin_day_of_month" : "1",
            "begin_month" : "1",
            "calendar_year" : "2007",
            "end_day_of_month" : "31",
            "end_month" : "12",
            "timesteps_per_hr" : "6"
         },
         "measure_dir_name" : "ResidentialSimulationControls",
         "result" : {
            "completed_at" : "20200409T201522Z",
            "measure_class_name" : "ResidentialSimulationControls",
            "measure_display_name" : "Set Residential Simulation Controls",
            "measure_name" : "residential_simulation_controls",
            "measure_taxonomy" : "Whole Building.Space Types",
            "measure_type" : "ModelMeasure",
            "measure_uid" : "874f921e-8f3c-458a-a82f-01b7d51a547e",
            "measure_version_id" : "50490d3c-8385-4b7e-a525-df4147819d03",
            "measure_version_modified" : "20200121T164352Z",
            "measure_xml_checksum" : "2C38F48B",
            "started_at" : "20200409T201522Z",
            "stderr" : "",
            "stdout" : "",
            "step_errors" : [],
            "step_files" : [],
            "step_info" : [
               "Set the simulation timesteps per hour to 6.",
               "Set the run period begin and end month/day to 1/1 and 12/31, respectively.",
               "Set the calendar year to 2007 and the start day of week to Monday; if you are running with AMY, this will be overridden by the AMY year."
            ],
            "step_result" : "Success",
            "step_values" : [
               {
                  "name" : "timesteps_per_hr",
                  "value" : 6
               },
               {
                  "name" : "begin_month",
                  "value" : 1
               },
               {
                  "name" : "begin_day_of_month",
                  "value" : 1
               },
               {
                  "name" : "end_month",
                  "value" : 12
               },
               {
                  "name" : "end_day_of_month",
                  "value" : 31
               },
               {
                  "name" : "calendar_year",
                  "value" : 2007
               }
            ],
            "step_warnings" : []
         }
      },
      {
         "arguments" : {
            "dst_end_date" : "October 26",
            "dst_start_date" : "April 7",
            "weather_directory" : "../HPXMLtoOpenStudio/weather",
            "weather_file_name" : "USA_CO_Denver.Intl.AP.725650_TMY3.epw"
         },
         "measure_dir_name" : "ResidentialLocation",
         "result" : {
            "completed_at" : "20200409T201523Z",
            "measure_class_name" : "SetResidentialEPWFile",
            "measure_display_name" : "Set Residential Location",
            "measure_name" : "set_residential_epw_file",
            "measure_taxonomy" : "Whole Building.Space Types",
            "measure_type" : "ModelMeasure",
            "measure_uid" : "16ac2c0c-6177-4bf2-91a5-1b6e8de4e85b",
            "measure_version_id" : "f89321a2-46dc-44ba-a139-698350046035",
            "measure_version_modified" : "20190701T173021Z",
            "measure_xml_checksum" : "D8922A73",
            "started_at" : "20200409T201523Z",
            "stderr" : "",
            "stdout" : "",
            "step_errors" : [],
            "step_files" : [],
            "step_final_condition" : "The weather file path is 'C:/Users/aspeake/Documents/OpenStudio-BuildStock/resources/measures/HPXMLtoOpenStudio/weather/USA_CO_Denver.Intl.AP.725650_TMY3.epw'.",
            "step_info" : [
               "Setting weather file.",
               "Setting site data.",
               "Setting Building America climate zone to Cold.",
               "Setting mains water temperature profile.",
               "Set daylight saving time from 2007-Apr-07 to 2007-Oct-26."
            ],
            "step_result" : "Success",
            "step_values" : [
               {
                  "name" : "weather_directory",
                  "value" : "../HPXMLtoOpenStudio/weather"
               },
               {
                  "name" : "weather_file_name",
                  "value" : "USA_CO_Denver.Intl.AP.725650_TMY3.epw"
               },
               {
                  "name" : "dst_start_date",
                  "value" : "April 7"
               },
               {
                  "name" : "dst_end_date",
                  "value" : "October 26"
               }
            ],
            "step_warnings" : []
         }
      },
      {
         "arguments" : {
            "attic_type" : "unfinished attic",
            "eaves_depth" : "2",
            "foundation_height" : "8",
            "foundation_type" : "finished basement",
            "has_rear_units" : "true",
            "horz_location" : "Left",
            "minimal_collapsed" : "false",
            "neighbor_back_offset" : "0",
            "neighbor_front_offset" : "0",
            "neighbor_left_offset" : "10",
            "neighbor_right_offset" : "10",
            "num_bathrooms" : "2",
            "num_bedrooms" : "3",
            "num_floors" : "2",
            "num_occupants" : "auto",
            "num_units" : "4",
            "occupants_monthly_sch" : "1.0, 1.0, 1.0, 1.0, 1.0, 1.0, 1.0, 1.0, 1.0, 1.0, 1.0, 1.0",
            "occupants_weekday_sch" : "1.00, 1.00, 1.00, 1.00, 1.00, 1.00, 1.00, 0.88, 0.41, 0.24, 0.24, 0.24, 0.24, 0.24, 0.24, 0.24, 0.29, 0.55, 0.90, 0.90, 0.90, 1.00, 1.00, 1.00",
            "occupants_weekend_sch" : "1.00, 1.00, 1.00, 1.00, 1.00, 1.00, 1.00, 0.88, 0.41, 0.24, 0.24, 0.24, 0.24, 0.24, 0.24, 0.24, 0.29, 0.55, 0.90, 0.90, 0.90, 1.00, 1.00, 1.00",
            "offset" : "0",
            "orientation" : "180",
            "roof_pitch" : "6:12",
            "roof_structure" : "truss, cantilever",
            "roof_type" : "gable",
            "unit_aspect_ratio" : "2",
            "unit_ffa" : "900",
            "wall_height" : "8"
         },
         "measure_dir_name" : "ResidentialGeometryCreateSingleFamilyAttached",
         "result" : {
            "completed_at" : "20200409T201523Z",
            "measure_class_name" : "CreateResidentialSingleFamilyAttachedGeometry",
            "measure_display_name" : "Create Residential Single-Family Attached Geometry",
            "measure_name" : "create_residential_single_family_attached_geometry",
            "measure_taxonomy" : "Envelope.Form",
            "measure_type" : "ModelMeasure",
            "measure_uid" : "fb4e4db8-1b29-4cbf-abcd-6af194ad945c",
            "measure_version_id" : "b59cbfa5-1300-46cb-82ab-7ec823fae606",
            "measure_version_modified" : "20200324T234126Z",
            "measure_xml_checksum" : "2AF3A68E",
            "started_at" : "20200409T201523Z",
            "stderr" : "",
            "stdout" : "",
            "step_errors" : [],
            "step_files" : [],
            "step_info" : [
               "The building has been assigned 3 bedroom(s) and 2.0 bathroom(s) across 1 unit(s).",
               "unit 1 has been assigned 1.13 occupant(s) for space 'finished basement space'.",
               "unit 1 has been assigned 1.13 occupant(s) for space 'living space'.",
               "unit 1 has been assigned 1.13 occupant(s) for space 'living space|story 2'.",
               "The building has been assigned 3.39 occupant(s) across 1 unit(s).",
               "Added 3 res eaves.",
               "Added 1 res neighbors shading surfaces.",
               "The building's initial orientation was 0.0 azimuth.",
               "The building's final orientation was 180.0 azimuth."
            ],
            "step_initial_condition" : "The building started with 0 spaces.",
            "step_result" : "Success",
            "step_values" : [
               {
                  "name" : "unit_ffa",
                  "value" : 900
               },
               {
                  "name" : "wall_height",
                  "value" : 8
               },
               {
                  "name" : "num_floors",
                  "value" : 2
               },
               {
                  "name" : "num_units",
                  "value" : 4
               },
               {
                  "name" : "unit_aspect_ratio",
                  "value" : 2
               },
               {
                  "name" : "offset",
                  "value" : 0
               },
               {
                  "name" : "has_rear_units",
                  "value" : true
               },
               {
                  "name" : "foundation_type",
                  "value" : "finished basement"
               },
               {
                  "name" : "foundation_height",
                  "value" : 8
               },
               {
                  "name" : "attic_type",
                  "value" : "unfinished attic"
               },
               {
                  "name" : "roof_type",
                  "value" : "gable"
               },
               {
                  "name" : "roof_pitch",
                  "value" : "6:12"
               },
               {
                  "name" : "roof_structure",
                  "value" : "truss, cantilever"
               },
               {
                  "name" : "eaves_depth",
                  "value" : 2
               },
               {
                  "name" : "num_bedrooms",
                  "value" : "3"
               },
               {
                  "name" : "num_bathrooms",
                  "value" : "2"
               },
               {
                  "name" : "num_occupants",
                  "value" : "auto"
               },
               {
                  "name" : "occupants_weekday_sch",
                  "value" : "1.00, 1.00, 1.00, 1.00, 1.00, 1.00, 1.00, 0.88, 0.41, 0.24, 0.24, 0.24, 0.24, 0.24, 0.24, 0.24, 0.29, 0.55, 0.90, 0.90, 0.90, 1.00, 1.00, 1.00"
               },
               {
                  "name" : "occupants_weekend_sch",
                  "value" : "1.00, 1.00, 1.00, 1.00, 1.00, 1.00, 1.00, 0.88, 0.41, 0.24, 0.24, 0.24, 0.24, 0.24, 0.24, 0.24, 0.29, 0.55, 0.90, 0.90, 0.90, 1.00, 1.00, 1.00"
               },
               {
                  "name" : "occupants_monthly_sch",
                  "value" : "1.0, 1.0, 1.0, 1.0, 1.0, 1.0, 1.0, 1.0, 1.0, 1.0, 1.0, 1.0"
               },
               {
                  "name" : "neighbor_left_offset",
                  "value" : 10
               },
               {
                  "name" : "neighbor_right_offset",
                  "value" : 10
               },
               {
                  "name" : "neighbor_back_offset",
                  "value" : 0
               },
               {
                  "name" : "neighbor_front_offset",
                  "value" : 0
               },
               {
                  "name" : "orientation",
                  "value" : 180
               },
               {
                  "name" : "minimal_collapsed",
                  "value" : false
               },
               {
                  "name" : "horz_location",
                  "value" : "Left"
               }
            ],
            "step_warnings" : []
         }
      },
      {
         "arguments" : {
            "door_area" : "20"
         },
         "measure_dir_name" : "ResidentialGeometryDoorArea",
         "result" : {
            "completed_at" : "20200409T201523Z",
            "measure_class_name" : "CreateResidentialDoorArea",
            "measure_display_name" : "Set Residential Door Area",
            "measure_name" : "create_residential_door_area",
            "measure_taxonomy" : "Envelope.Fenestration",
            "measure_type" : "ModelMeasure",
            "measure_uid" : "901a04ee-99d4-42b3-91e1-b5b97970f441",
            "measure_version_id" : "84151180-e119-49a1-8696-640cf29feeaf",
            "measure_version_modified" : "20200324T183313Z",
            "measure_xml_checksum" : "9C8A26EB",
            "started_at" : "20200409T201523Z",
            "stderr" : "",
            "stdout" : "",
            "step_errors" : [],
            "step_files" : [],
            "step_final_condition" : "The building has been assigned 20.0 ft^2 total door area.",
            "step_info" : [ "For unit 1 added 20.0 ft^2 door." ],
            "step_result" : "Success",
            "step_values" : [
               {
                  "name" : "door_area",
                  "value" : 20
               }
            ],
            "step_warnings" : []
         }
      },
      {
         "arguments" : {
            "back_skylight_area" : "0",
            "back_window_area" : "0",
            "back_wwr" : "0.18",
            "front_skylight_area" : "0",
            "front_window_area" : "0",
            "front_wwr" : "0.18",
            "left_skylight_area" : "0",
            "left_window_area" : "0",
            "left_wwr" : "0.18",
            "overhang_back_facade" : "true",
            "overhang_depth" : "2",
            "overhang_front_facade" : "true",
            "overhang_left_facade" : "true",
            "overhang_offset" : "0.5",
            "overhang_right_facade" : "true",
            "right_skylight_area" : "0",
            "right_window_area" : "0",
            "right_wwr" : "0.18",
            "window_aspect_ratio" : "1.333"
         },
         "measure_dir_name" : "ResidentialGeometryWindowSkylightArea",
         "result" : {
            "completed_at" : "20200409T201523Z",
            "measure_class_name" : "SetResidentialWindowSkylightArea",
            "measure_display_name" : "Set Residential Window/Skylight Area",
            "measure_name" : "set_residential_window_skylight_area",
            "measure_taxonomy" : "Envelope.Fenestration",
            "measure_type" : "ModelMeasure",
            "measure_uid" : "d05f5b32-1ad6-4c3d-964a-0dbd49a7fde8",
            "measure_version_id" : "1bb1dd6d-35bf-4e3c-b52c-d173930c8d5c",
            "measure_version_modified" : "20200324T183313Z",
            "measure_xml_checksum" : "9014E219",
            "started_at" : "20200409T201523Z",
            "stderr" : "",
            "stdout" : "",
            "step_errors" : [],
            "step_files" : [],
            "step_final_condition" : "The building has been assigned 101.5 ft^2 total window area, and 0.0 ft^2 total skylight area.",
            "step_info" : [
               "Added 2 window(s), totaling 12.9 ft^2, to Surface 5.",
               "Added 2 window(s), totaling 18.0 ft^2, to Surface 10.",
               "Added 3 window(s), totaling 35.3 ft^2, to Surface 2.",
               "Added 3 window(s), totaling 35.3 ft^2, to Surface 7.",
               "Added 10 res overhangs."
            ],
            "step_result" : "Success",
            "step_values" : [
               {
                  "name" : "front_wwr",
                  "value" : 0.17999999999999999
               },
               {
                  "name" : "back_wwr",
                  "value" : 0.17999999999999999
               },
               {
                  "name" : "left_wwr",
                  "value" : 0.17999999999999999
               },
               {
                  "name" : "right_wwr",
                  "value" : 0.17999999999999999
               },
               {
                  "name" : "front_window_area",
                  "value" : 0
               },
               {
                  "name" : "back_window_area",
                  "value" : 0
               },
               {
                  "name" : "left_window_area",
                  "value" : 0
               },
               {
                  "name" : "right_window_area",
                  "value" : 0
               },
               {
                  "name" : "window_aspect_ratio",
                  "value" : 1.333
               },
               {
                  "name" : "overhang_depth",
                  "value" : 2
               },
               {
                  "name" : "overhang_offset",
                  "value" : 0.5
               },
               {
                  "name" : "overhang_front_facade",
                  "value" : true
               },
               {
                  "name" : "overhang_back_facade",
                  "value" : true
               },
               {
                  "name" : "overhang_left_facade",
                  "value" : true
               },
               {
                  "name" : "overhang_right_facade",
                  "value" : true
               },
               {
                  "name" : "front_skylight_area",
                  "value" : 0
               },
               {
                  "name" : "back_skylight_area",
                  "value" : 0
               },
               {
                  "name" : "left_skylight_area",
                  "value" : 0
               },
               {
                  "name" : "right_skylight_area",
                  "value" : 0
               }
            ],
            "step_warnings" : []
         }
      },
      {
         "arguments" : {
            "ceiling_drywall_thick_in" : "0.5",
            "ceiling_framing_factor" : "0.07",
            "ceiling_ins_thick_in" : "8.55",
            "ceiling_install_grade" : "1",
            "ceiling_joist_height_in" : "3.5",
            "ceiling_r" : "30",
            "has_radiant_barrier" : "false",
            "roof_cavity_ins_thick_in" : "0",
            "roof_cavity_r" : "0",
            "roof_framing_factor" : "0.07",
            "roof_framing_thick_in" : "7.25",
            "roof_install_grade" : "1",
            "roof_osb_thick_in" : "0.75",
            "roof_rigid_r" : "0",
            "roofing_material" : "Asphalt Shingles, Medium"
         },
         "measure_dir_name" : "ResidentialConstructionsUnfinishedAttic",
         "result" : {
            "completed_at" : "20200409T201524Z",
            "measure_class_name" : "ProcessConstructionsUnfinishedAttic",
            "measure_display_name" : "Set Residential Unfinished Attic Constructions",
            "measure_name" : "process_constructions_unfinished_attic",
            "measure_taxonomy" : "Envelope.Opaque",
            "measure_type" : "ModelMeasure",
            "measure_uid" : "235ba3ce-dd83-4287-aa0e-435dc1cbf1a7",
            "measure_version_id" : "af5c6a9c-8320-4e41-9c7d-01aa6d4be420",
            "measure_version_modified" : "20200226T215030Z",
            "measure_xml_checksum" : "1E963D9C",
            "started_at" : "20200409T201524Z",
            "stderr" : "",
            "stdout" : "",
            "step_errors" : [],
            "step_files" : [],
            "step_info" : [
               "Material 'FloorUAAdditionalCeilingIns' was created.",
               "Material 'FloorUATrussandIns' was created.",
               "Material 'Drywall 0.5 in.' was created.",
               "Construction 'FloorFinInsUnfinAttic' was created with 3 materials (FloorUAAdditionalCeilingIns | FloorUATrussandIns | Drywall 0.5 in.).",
               "Surface 'Surface 13' has been assigned construction 'FloorFinInsUnfinAttic'.",
               "Construction 'FloorFinInsUnfinAttic Reversed' was created with 3 materials (Drywall 0.5 in. | FloorUATrussandIns | FloorUAAdditionalCeilingIns).",
               "Surface 'Surface 11' has been assigned construction 'FloorFinInsUnfinAttic Reversed'.",
               "Material 'Asphalt Shingles, Medium' was created.",
               "Material 'RoofSheathing' was created.",
               "Material 'RoofUARoofIns' was created.",
               "Construction 'RoofUnfinInsExt' was created with 3 materials (Asphalt Shingles, Medium | RoofSheathing | RoofUARoofIns).",
               "Surface 'Surface 15' has been assigned construction 'RoofUnfinInsExt'.",
               "Material 'RoofStudAndAirRoof' was created.",
               "Construction 'RoofUnfinUninsExt' was created with 3 materials (Asphalt Shingles, Medium | RoofSheathing | RoofStudAndAirRoof).",
               "Surface 'Surface 14' has been assigned construction 'RoofUnfinUninsExt'.",
               "Construction 'RoofUnfinUninsExt Reversed' was created with 3 materials (RoofStudAndAirRoof | RoofSheathing | Asphalt Shingles, Medium).",
               "Surface 'Surface 14' has been assigned construction 'RoofUnfinUninsExt Reversed'.",
               "Removed construction 'RoofUnfinUninsExt' because it was orphaned."
            ],
            "step_result" : "Success",
            "step_values" : [
               {
                  "name" : "ceiling_r",
                  "value" : 30
               },
               {
                  "name" : "ceiling_install_grade",
                  "value" : "1"
               },
               {
                  "name" : "ceiling_ins_thick_in",
                  "value" : 8.5500000000000007
               },
               {
                  "name" : "ceiling_framing_factor",
                  "value" : 0.070000000000000007
               },
               {
                  "name" : "ceiling_joist_height_in",
                  "value" : 3.5
               },
               {
                  "name" : "ceiling_drywall_thick_in",
                  "value" : 0.5
               },
               {
                  "name" : "roof_cavity_r",
                  "value" : 0
               },
               {
                  "name" : "roof_install_grade",
                  "value" : "1"
               },
               {
                  "name" : "roof_cavity_ins_thick_in",
                  "value" : 0
               },
               {
                  "name" : "roof_framing_factor",
                  "value" : 0.070000000000000007
               },
               {
                  "name" : "roof_framing_thick_in",
                  "value" : 7.25
               },
               {
                  "name" : "roof_osb_thick_in",
                  "value" : 0.75
               },
               {
                  "name" : "roof_rigid_r",
                  "value" : 0
               },
               {
                  "name" : "roofing_material",
                  "value" : "Asphalt Shingles, Medium"
               },
               {
                  "name" : "has_radiant_barrier",
                  "value" : false
               }
            ],
            "step_warnings" : []
         }
      },
      {
         "arguments" : {
            "cavity_depth_in" : "3.5",
            "cavity_filled" : "true",
            "cavity_r" : "13",
            "drywall_thick_in" : "0.5",
            "exterior_finish" : "Vinyl, Light",
            "framing_factor" : "0.25",
            "install_grade" : "1",
            "osb_thick_in" : "0.5",
            "rigid_r" : "0"
         },
         "measure_dir_name" : "ResidentialConstructionsWallsWoodStud",
         "result" : {
            "completed_at" : "20200409T201524Z",
            "measure_class_name" : "ProcessConstructionsWallsWoodStud",
            "measure_display_name" : "Set Residential Walls - Wood Stud Construction",
            "measure_name" : "process_constructions_walls_wood_stud",
            "measure_taxonomy" : "Envelope.Opaque",
            "measure_type" : "ModelMeasure",
            "measure_uid" : "76193c5c-d1a6-4a57-864a-c8a32e67adcb",
            "measure_version_id" : "0ad3677a-b93e-4b8c-bce8-65a3a3f6fe47",
            "measure_version_modified" : "20200324T183312Z",
            "measure_xml_checksum" : "1E963D9C",
            "started_at" : "20200409T201524Z",
            "stderr" : "",
            "stdout" : "",
            "step_errors" : [],
            "step_files" : [],
            "step_info" : [
               "Material 'Vinyl, Light' was created.",
               "Material 'WallSheathing' was created.",
               "Material 'WallStudAndCavity' was created.",
               "Construction 'WallExtInsFin' was created with 4 materials (Vinyl, Light | WallSheathing | WallStudAndCavity | Drywall 0.5 in.).",
               "Surface 'Surface 2' has been assigned construction 'WallExtInsFin'.",
               "Surface 'Surface 5' has been assigned construction 'WallExtInsFin'.",
               "Surface 'Surface 24' has been assigned construction 'WallExtInsFin'.",
               "Surface 'Surface 25' has been assigned construction 'WallExtInsFin'.",
               "Surface 'Surface 7' has been assigned construction 'WallExtInsFin'.",
               "Surface 'Surface 10' has been assigned construction 'WallExtInsFin'.",
               "Material 'WallStudAndCavity 1' was created.",
               "Construction 'WallExtUninsUnfin' was created with 3 materials (Vinyl, Light | WallSheathing | WallStudAndCavity 1).",
               "Surface 'Surface 16' has been assigned construction 'WallExtUninsUnfin'.",
               "Material 'WallStudAndCavity 2' was created.",
               "Construction 'WallIntFinUninsFin' was created with 3 materials (Vinyl, Light | WallStudAndCavity 2 | Drywall 0.5 in.).",
               "Surface 'Surface 4' has been assigned construction 'WallIntFinUninsFin'.",
               "Construction 'WallIntFinUninsFin Reversed' was created with 3 materials (Drywall 0.5 in. | WallStudAndCavity 2 | Vinyl, Light).",
               "Surface 'Surface 4' has been assigned construction 'WallIntFinUninsFin Reversed'.",
               "Surface 'Surface 3' has been assigned construction 'WallIntFinUninsFin'.",
               "Surface 'Surface 3' has been assigned construction 'WallIntFinUninsFin Reversed'.",
               "Surface 'Surface 8' has been assigned construction 'WallIntFinUninsFin'.",
               "Surface 'Surface 8' has been assigned construction 'WallIntFinUninsFin Reversed'.",
               "Surface 'Surface 9' has been assigned construction 'WallIntFinUninsFin'.",
               "Surface 'Surface 9' has been assigned construction 'WallIntFinUninsFin Reversed'.",
               "Material 'WallStudAndCavity 3' was created.",
               "Construction 'WallIntUnfinUninsUnfin' was created with 2 materials (Vinyl, Light | WallStudAndCavity 3).",
               "Surface 'Surface 17' has been assigned construction 'WallIntUnfinUninsUnfin'.",
               "Construction 'WallIntUnfinUninsUnfin Reversed' was created with 2 materials (WallStudAndCavity 3 | Vinyl, Light).",
               "Surface 'Surface 17' has been assigned construction 'WallIntUnfinUninsUnfin Reversed'.",
               "Added internal mass object 'living space Partition' to space 'living space'",
               "Added internal mass object 'living space|story 2 Partition' to space 'living space|story 2'",
               "Added internal mass object 'finished basement space Partition' to space 'finished basement space'",
               "Material 'WallStudAndCavity 4' was created.",
               "Construction 'WallIntFinUninsFin 1' was created with 2 materials (WallStudAndCavity 4 | Drywall 0.5 in.).",
               "InternalMassDefinition 'living space Partition' has been assigned construction 'WallIntFinUninsFin 1'.",
               "InternalMassDefinition 'living space|story 2 Partition' has been assigned construction 'WallIntFinUninsFin 1'.",
               "InternalMassDefinition 'finished basement space Partition' has been assigned construction 'WallIntFinUninsFin 1'.",
               "Material 'res furniture material living space' was created.",
               "Construction 'res furniture construction living space' was created with 1 material (res furniture material living space).",
               "InternalMassDefinition 'res furniture mass living space' has been assigned construction 'res furniture construction living space'.",
               "Assigned internal mass object 'res furniture mass living space' to space 'living space'.",
               "Construction 'res furniture construction living space|story 2' was created with 1 material (res furniture material living space).",
               "InternalMassDefinition 'res furniture mass living space|story 2' has been assigned construction 'res furniture construction living space|story 2'.",
               "Assigned internal mass object 'res furniture mass living space|story 2' to space 'living space|story 2'.",
               "Construction 'res furniture construction finished basement space' was created with 1 material (res furniture material living space).",
               "InternalMassDefinition 'res furniture mass finished basement space' has been assigned construction 'res furniture construction finished basement space'.",
               "Assigned internal mass object 'res furniture mass finished basement space' to space 'finished basement space'.",
               "Removed construction 'WallIntFinUninsFin' because it was orphaned.",
               "Removed construction 'WallIntUnfinUninsUnfin' because it was orphaned."
            ],
            "step_result" : "Success",
            "step_values" : [
               {
                  "name" : "cavity_r",
                  "value" : 13
               },
               {
                  "name" : "install_grade",
                  "value" : "1"
               },
               {
                  "name" : "cavity_depth_in",
                  "value" : 3.5
               },
               {
                  "name" : "cavity_filled",
                  "value" : true
               },
               {
                  "name" : "framing_factor",
                  "value" : 0.25
               },
               {
                  "name" : "drywall_thick_in",
                  "value" : 0.5
               },
               {
                  "name" : "osb_thick_in",
                  "value" : 0.5
               },
               {
                  "name" : "rigid_r",
                  "value" : 0
               },
               {
                  "name" : "exterior_finish",
                  "value" : "Vinyl, Light"
               }
            ],
            "step_warnings" : []
         }
      },
      {
         "arguments" : {
            "slab_whole_r" : "0",
            "wall_cavity_depth_in" : "0",
            "wall_cavity_r" : "0",
            "wall_drywall_thick_in" : "0.5",
            "wall_filled_cavity" : "true",
            "wall_framing_factor" : "0",
            "wall_ins_height" : "8",
            "wall_install_grade" : "1",
            "wall_rigid_r" : "10"
         },
         "measure_dir_name" : "ResidentialConstructionsFinishedBasement",
         "result" : {
            "completed_at" : "20200409T201524Z",
            "measure_class_name" : "ProcessConstructionsFinishedBasement",
            "measure_display_name" : "Set Residential Finished Basement Constructions",
            "measure_name" : "process_constructions_finished_basement",
            "measure_taxonomy" : "Envelope.Opaque",
            "measure_type" : "ModelMeasure",
            "measure_uid" : "4b37c726-d6c4-473b-990a-0923c302ed36",
            "measure_version_id" : "d6218a2a-2758-446f-9f89-79cc89c94cd7",
            "measure_version_modified" : "20200324T183311Z",
            "measure_xml_checksum" : "1E963D9C",
            "started_at" : "20200409T201524Z",
            "stderr" : "",
            "stdout" : "",
            "step_errors" : [],
            "step_files" : [],
            "step_info" : [
               "Material 'Concrete 8.0 in.' was created.",
               "Construction 'WallFndGrndFinB' was created with 2 materials (Concrete 8.0 in. | Drywall 0.5 in.).",
               "Surface 'Surface 19' has been assigned construction 'WallFndGrndFinB'.",
               "Surface 'Surface 21' has been assigned construction 'WallFndGrndFinB'.",
               "Construction 'WallFndGrndFinB Reversed' was created with 2 materials (Drywall 0.5 in. | Concrete 8.0 in.).",
               "Surface 'Surface 21' has been assigned construction 'WallFndGrndFinB Reversed'.",
               "Surface 'Surface 22' has been assigned construction 'WallFndGrndFinB'.",
               "Surface 'Surface 20' has been assigned construction 'WallFndGrndFinB'.",
               "Surface 'Surface 20' has been assigned construction 'WallFndGrndFinB Reversed'.",
               "Material 'Concrete 4.0 in.' was created.",
               "Construction 'FloorFndGrndFinB' was created with 1 material (Concrete 4.0 in.).",
               "Surface 'Surface 18' has been assigned construction 'FloorFndGrndFinB'."
            ],
            "step_result" : "Success",
            "step_values" : [
               {
                  "name" : "wall_ins_height",
                  "value" : 8
               },
               {
                  "name" : "wall_cavity_r",
                  "value" : 0
               },
               {
                  "name" : "wall_install_grade",
                  "value" : "1"
               },
               {
                  "name" : "wall_cavity_depth_in",
                  "value" : 0
               },
               {
                  "name" : "wall_filled_cavity",
                  "value" : true
               },
               {
                  "name" : "wall_framing_factor",
                  "value" : 0
               },
               {
                  "name" : "wall_rigid_r",
                  "value" : 10
               },
               {
                  "name" : "wall_drywall_thick_in",
                  "value" : 0.5
               },
               {
                  "name" : "slab_whole_r",
                  "value" : 0
               }
            ],
            "step_warnings" : []
         }
      },
      {
         "arguments" : {
            "cavity_r" : "19",
            "framing_factor" : "0.13",
            "install_grade" : "1",
            "joist_height_in" : "5.5"
         },
         "measure_dir_name" : "ResidentialConstructionsFloors",
         "result" : {
            "completed_at" : "20200409T201524Z",
            "measure_class_name" : "ProcessConstructionsFloors",
            "measure_display_name" : "Set Residential Floor Construction",
            "measure_name" : "process_constructions_floors",
            "measure_taxonomy" : "Envelope.Opaque",
            "measure_type" : "ModelMeasure",
            "measure_uid" : "65e577ab-327e-4afa-af30-0f6b4e6b1ebf",
            "measure_version_id" : "54db01d7-8cb4-4d3c-bcff-f911ef246735",
            "measure_version_modified" : "20190701T173017Z",
            "measure_xml_checksum" : "1E963D9C",
            "started_at" : "20200409T201524Z",
            "stderr" : "",
            "stdout" : "",
            "step_errors" : [],
            "step_files" : [],
            "step_info" : [
               "Material 'FloorFinStudAndAirFloor' was created.",
               "Material 'Wood Floor' was created.",
               "Material 'Floor Covering' was created.",
               "Construction 'FloorFinUninsFin' was created with 5 materials (Drywall 0.5 in. | FloorFinStudAndAirFloor | RoofSheathing | Wood Floor | Floor Covering).",
               "Surface 'Surface 1' has been assigned construction 'FloorFinUninsFin'.",
               "Construction 'FloorFinUninsFin Reversed' was created with 5 materials (Floor Covering | Wood Floor | RoofSheathing | FloorFinStudAndAirFloor | Drywall 0.5 in.).",
               "Surface 'Surface 23' has been assigned construction 'FloorFinUninsFin Reversed'.",
               "Surface 'Surface 12' has been assigned construction 'FloorFinUninsFin'.",
               "Surface 'Surface 6' has been assigned construction 'FloorFinUninsFin Reversed'."
            ],
            "step_result" : "Success",
            "step_values" : [
               {
                  "name" : "cavity_r",
                  "value" : 19
               },
               {
                  "name" : "install_grade",
                  "value" : "1"
               },
               {
                  "name" : "framing_factor",
                  "value" : 0.13
               },
               {
                  "name" : "joist_height_in",
                  "value" : 5.5
               }
            ],
            "step_warnings" : []
         }
      },
      {
         "arguments" : {
            "skylight_cool_shade_mult" : "1",
            "skylight_heat_shade_mult" : "1",
            "skylight_shgc" : "0.45",
            "skylight_ufactor" : "0.33",
            "window_cool_shade_mult" : "0.7",
            "window_heat_shade_mult" : "0.7",
            "window_shgc" : "0.3",
            "window_ufactor" : "0.37"
         },
         "measure_dir_name" : "ResidentialConstructionsWindowsSkylights",
         "result" : {
            "completed_at" : "20200409T201524Z",
            "measure_class_name" : "ProcessConstructionsWindowsSkylights",
            "measure_display_name" : "Set Residential Window/Skylight Construction",
            "measure_name" : "process_constructions_windows_skylights",
            "measure_taxonomy" : "Envelope.Fenestration",
            "measure_type" : "ModelMeasure",
            "measure_uid" : "648dc42f-f079-4d97-913e-6dc3e19560b1",
            "measure_version_id" : "e794f109-ad20-4bcc-8ff1-492a565d7a4a",
            "measure_version_modified" : "20200324T183312Z",
            "measure_xml_checksum" : "6FAFA9DE",
            "started_at" : "20200409T201524Z",
            "stderr" : "",
            "stdout" : "",
            "step_errors" : [],
            "step_files" : [],
            "step_final_condition" : "All windows and skylights have been assigned constructions.",
            "step_info" : [
               "Material 'WindowMaterial' was created.",
               "Construction 'WindowConstruction' was created with 1 material (WindowMaterial).",
               "SubSurface 'Surface 2 - Window 1' has been assigned construction 'WindowConstruction'.",
               "SubSurface 'Surface 10 - Window 1' has been assigned construction 'WindowConstruction'.",
               "SubSurface 'Surface 5 - Window 1' has been assigned construction 'WindowConstruction'.",
               "SubSurface 'Surface 5 - Window 2' has been assigned construction 'WindowConstruction'.",
               "SubSurface 'Surface 7 - Window 1' has been assigned construction 'WindowConstruction'.",
               "SubSurface 'Surface 10 - Window 2' has been assigned construction 'WindowConstruction'.",
               "SubSurface 'Surface 2 - Window 2' has been assigned construction 'WindowConstruction'.",
               "SubSurface 'Surface 2 - Window 3' has been assigned construction 'WindowConstruction'.",
               "SubSurface 'Surface 7 - Window 2' has been assigned construction 'WindowConstruction'.",
               "SubSurface 'Surface 7 - Window 3' has been assigned construction 'WindowConstruction'.",
               "Construction and interior shades added to 10 window(s)."
            ],
            "step_result" : "Success",
            "step_values" : [
               {
                  "name" : "window_ufactor",
                  "value" : 0.37
               },
               {
                  "name" : "window_shgc",
                  "value" : 0.29999999999999999
               },
               {
                  "name" : "window_heat_shade_mult",
                  "value" : 0.69999999999999996
               },
               {
                  "name" : "window_cool_shade_mult",
                  "value" : 0.69999999999999996
               },
               {
                  "name" : "skylight_ufactor",
                  "value" : 0.33000000000000002
               },
               {
                  "name" : "skylight_shgc",
                  "value" : 0.45000000000000001
               },
               {
                  "name" : "skylight_heat_shade_mult",
                  "value" : 1
               },
               {
                  "name" : "skylight_cool_shade_mult",
                  "value" : 1
               }
            ],
            "step_warnings" : []
         }
      },
      {
         "arguments" : {
            "ufactor" : "0.2"
         },
         "measure_dir_name" : "ResidentialConstructionsDoors",
         "result" : {
            "completed_at" : "20200409T201524Z",
            "measure_class_name" : "ProcessConstructionsDoors",
            "measure_display_name" : "Set Residential Door Construction",
            "measure_name" : "process_constructions_doors",
            "measure_taxonomy" : "Envelope.Fenestration",
            "measure_type" : "ModelMeasure",
            "measure_uid" : "b78f10fa-b38d-4de2-86e9-344a78e68847",
            "measure_version_id" : "423aabac-34c3-436e-a3ea-1d30174815f1",
            "measure_version_modified" : "20200324T183310Z",
            "measure_xml_checksum" : "6FAFA9DE",
            "started_at" : "20200409T201524Z",
            "stderr" : "",
            "stdout" : "",
            "step_errors" : [],
            "step_files" : [],
            "step_info" : [
               "Material 'DoorMaterial' was created.",
               "Construction 'Door' was created with 1 material (DoorMaterial).",
               "SubSurface 'unit 1 - Surface 5 - Door' has been assigned construction 'Door'."
            ],
            "step_result" : "Success",
            "step_values" : [
               {
                  "name" : "ufactor",
                  "value" : 0.20000000000000001
               }
            ],
            "step_warnings" : []
         }
      },
      {
         "arguments" : {
            "capacity" : "40.0",
            "energy_factor" : "0.59",
            "fuel_type" : "gas",
            "location" : "auto",
            "offcyc_power" : "0",
            "oncyc_power" : "0",
            "recovery_efficiency" : "0.76",
            "setpoint_temp" : "125",
            "tank_volume" : "auto"
         },
         "measure_dir_name" : "ResidentialHotWaterHeaterTank",
         "result" : {
            "completed_at" : "20200409T201525Z",
            "measure_class_name" : "ResidentialHotWaterHeaterTank",
            "measure_display_name" : "Set Residential Tank Water Heater",
            "measure_name" : "residential_hot_water_heater_tank",
            "measure_taxonomy" : "Service Water Heating.Water Heating",
            "measure_type" : "ModelMeasure",
            "measure_uid" : "0f2214ac-12ca-4350-9942-8d1fb1277608",
            "measure_version_id" : "da1b6e1b-2fbf-49a0-89f4-83dfc3e1b5ed",
            "measure_version_modified" : "20200324T183313Z",
            "measure_xml_checksum" : "9882CBDB",
            "started_at" : "20200409T201525Z",
            "stderr" : "",
            "stdout" : "",
            "step_errors" : [],
            "step_files" : [],
            "step_final_condition" : "Water heater 'res wh' added to plant loop 'Domestic Hot Water Loop', with a capacity of 40.0 kBtu/hr and an actual tank volume of 38.0 gal.",
            "step_info" : [ "A new plant loop for DHW will be added to the model" ],
            "step_initial_condition" : "No water heater model currently exists",
            "step_result" : "Success",
            "step_values" : [
               {
                  "name" : "fuel_type",
                  "value" : "gas"
               },
               {
                  "name" : "tank_volume",
                  "value" : "auto"
               },
               {
                  "name" : "setpoint_temp",
                  "value" : 125
               },
               {
                  "name" : "location",
                  "value" : "auto"
               },
               {
                  "name" : "capacity",
                  "value" : "40.0"
               },
               {
                  "name" : "energy_factor",
                  "value" : "0.59"
               },
               {
                  "name" : "recovery_efficiency",
                  "value" : 0.76000000000000001
               },
               {
                  "name" : "offcyc_power",
                  "value" : 0
               },
               {
                  "name" : "oncyc_power",
                  "value" : 0
               }
            ],
            "step_warnings" : []
         }
      },
      {
         "arguments" : {
            "bath_mult" : "1",
            "plant_loop" : "auto",
            "schedule_day_shift" : "0",
            "shower_mult" : "1",
            "sink_mult" : "1"
         },
         "measure_dir_name" : "ResidentialHotWaterFixtures",
         "result" : {
            "completed_at" : "20200409T201525Z",
            "measure_class_name" : "ResidentialHotWaterFixtures",
            "measure_display_name" : "Set Residential Hot Water Fixtures",
            "measure_name" : "residential_hot_water_fixtures",
            "measure_taxonomy" : "Service Water Heating.Water Use",
            "measure_type" : "ModelMeasure",
            "measure_uid" : "6159fd36-6bfa-4907-9200-9cb852d50799",
            "measure_version_id" : "4c191abf-df77-4d31-bfd4-7abc20176381",
            "measure_version_modified" : "20200324T183313Z",
            "measure_xml_checksum" : "A6ACD89C",
            "started_at" : "20200409T201525Z",
            "stderr" : "",
            "stdout" : "",
            "step_errors" : [],
            "step_files" : [],
            "step_final_condition" : "Shower, sinks, and bath fixtures drawing 28.1, 25.0, and 7.0 gal/day respectively have been added to plant loop 'Domestic Hot Water Loop' and assigned to space 'living space'.",
            "step_info" : [],
            "step_result" : "Success",
            "step_values" : [
               {
                  "name" : "shower_mult",
                  "value" : 1
               },
               {
                  "name" : "sink_mult",
                  "value" : 1
               },
               {
                  "name" : "bath_mult",
                  "value" : 1
               },
               {
                  "name" : "plant_loop",
                  "value" : "auto"
               },
               {
                  "name" : "schedule_day_shift",
                  "value" : 0
               }
            ],
            "step_warnings" : []
         }
      },
      {
         "arguments" : {
            "dist_ins" : "0",
            "dist_layout" : "trunk and branch",
            "pipe_mat" : "copper",
            "recirc_type" : "none",
            "space" : "interior"
         },
         "measure_dir_name" : "ResidentialHotWaterDistribution",
         "result" : {
            "completed_at" : "20200409T201525Z",
            "measure_class_name" : "ResidentialHotWaterDistribution",
            "measure_display_name" : "Set Residential Hot Water Distribution",
            "measure_name" : "residential_hot_water_distribution",
            "measure_taxonomy" : "Service Water Heating.Distribution",
            "measure_type" : "ModelMeasure",
            "measure_uid" : "4615ccb7-3ce5-4627-b7c2-a7fea9c4af87",
            "measure_version_id" : "8192618f-1dc0-433c-a937-b272f2e441d3",
            "measure_version_modified" : "20200324T183313Z",
            "measure_xml_checksum" : "D2231FB9",
            "started_at" : "20200409T201525Z",
            "stderr" : "",
            "stdout" : "",
            "step_errors" : [],
            "step_files" : [],
            "step_final_condition" : "A new copper, trunk and branch DHW distribution system has been assigned to the location interior of the home.",
            "step_info" : [],
            "step_result" : "Success",
            "step_values" : [
               {
                  "name" : "pipe_mat",
                  "value" : "copper"
               },
               {
                  "name" : "dist_layout",
                  "value" : "trunk and branch"
               },
               {
                  "name" : "space",
                  "value" : "interior"
               },
               {
                  "name" : "recirc_type",
                  "value" : "none"
               },
               {
                  "name" : "dist_ins",
                  "value" : 0
               }
            ],
            "step_warnings" : []
         }
      },
      {
         "arguments" : {
            "cop" : "3.05",
            "cop_capacity_derate_1ton" : "1",
            "cop_capacity_derate_2ton" : "1",
            "cop_capacity_derate_3ton" : "1",
            "cop_capacity_derate_4ton" : "1",
            "cop_capacity_derate_5ton" : "1",
            "crankcase_capacity" : "0.02",
            "crankcase_temp" : "55",
            "dse" : "NA",
            "eer" : "11.4",
            "eer_capacity_derate_1ton" : "1",
            "eer_capacity_derate_2ton" : "1",
            "eer_capacity_derate_3ton" : "1",
            "eer_capacity_derate_4ton" : "1",
            "eer_capacity_derate_5ton" : "1",
            "fan_power_installed" : "0.5",
            "fan_power_rated" : "0.365",
            "heat_pump_capacity" : "autosize",
            "hspf" : "7.7",
            "min_temp" : "0",
            "seer" : "13",
            "shr" : "0.73",
            "supplemental_capacity" : "autosize",
            "supplemental_efficiency" : "1"
         },
         "measure_dir_name" : "ResidentialHVACAirSourceHeatPumpSingleSpeed",
         "result" : {
            "completed_at" : "20200409T201525Z",
            "measure_class_name" : "ProcessSingleSpeedAirSourceHeatPump",
            "measure_display_name" : "Set Residential Single-Speed Air Source Heat Pump",
            "measure_name" : "process_single_speed_air_source_heat_pump",
            "measure_taxonomy" : "HVAC.Heating",
            "measure_type" : "ModelMeasure",
            "measure_uid" : "9f709cf6-cf55-4bb3-8087-7a5c5a98aa7c",
            "measure_version_id" : "49efe550-a59d-44c3-932f-ce61687d3248",
            "measure_version_modified" : "20200324T183314Z",
            "measure_xml_checksum" : "0DA5C9E6",
            "started_at" : "20200409T201525Z",
            "stderr" : "",
            "stdout" : "",
            "step_errors" : [],
            "step_files" : [],
            "step_info" : [
               "Added 'res ashp htg supply fan' to 'res ashp htg unitary system' of 'res ashp htg asys'",
               "Added 'res ashp htg coil' to 'res ashp htg unitary system' of 'res ashp htg asys'",
               "Added 'res ashp supp heater' to 'res ashp htg unitary system' of 'res ashp htg asys'",
               "Added 'res ashp htg asys' to 'living zone' of unit 1",
               "Added 'res ashp htg asys' to 'finished basement zone' of unit 1",
               "Added 'res ashp clg supply fan' to 'res ashp clg unitary system' of 'res ashp clg asys'",
               "Added 'res ashp clg coil' to 'res ashp clg unitary system' of 'res ashp clg asys'",
               "Added 'res ashp clg asys' to 'living zone' of unit 1",
               "Added 'res ashp clg asys' to 'finished basement zone' of unit 1"
            ],
            "step_result" : "Success",
            "step_values" : [
               {
                  "name" : "seer",
                  "value" : 13
               },
               {
                  "name" : "hspf",
                  "value" : 7.7000000000000002
               },
               {
                  "name" : "eer",
                  "value" : 11.4
               },
               {
                  "name" : "cop",
                  "value" : 3.0499999999999998
               },
               {
                  "name" : "shr",
                  "value" : 0.72999999999999998
               },
               {
                  "name" : "fan_power_rated",
                  "value" : 0.36499999999999999
               },
               {
                  "name" : "fan_power_installed",
                  "value" : 0.5
               },
               {
                  "name" : "min_temp",
                  "value" : 0
               },
               {
                  "name" : "crankcase_capacity",
                  "value" : 0.02
               },
               {
                  "name" : "crankcase_temp",
                  "value" : 55
               },
               {
                  "name" : "eer_capacity_derate_1ton",
                  "value" : 1
               },
               {
                  "name" : "eer_capacity_derate_2ton",
                  "value" : 1
               },
               {
                  "name" : "eer_capacity_derate_3ton",
                  "value" : 1
               },
               {
                  "name" : "eer_capacity_derate_4ton",
                  "value" : 1
               },
               {
                  "name" : "eer_capacity_derate_5ton",
                  "value" : 1
               },
               {
                  "name" : "cop_capacity_derate_1ton",
                  "value" : 1
               },
               {
                  "name" : "cop_capacity_derate_2ton",
                  "value" : 1
               },
               {
                  "name" : "cop_capacity_derate_3ton",
                  "value" : 1
               },
               {
                  "name" : "cop_capacity_derate_4ton",
                  "value" : 1
               },
               {
                  "name" : "cop_capacity_derate_5ton",
                  "value" : 1
               },
               {
                  "name" : "heat_pump_capacity",
                  "value" : "autosize"
               },
               {
                  "name" : "supplemental_efficiency",
                  "value" : 1
               },
               {
                  "name" : "supplemental_capacity",
                  "value" : "autosize"
               },
               {
                  "name" : "dse",
                  "value" : "NA"
               }
            ],
            "step_warnings" : []
         }
      },
      {
         "arguments" : {
            "season_end_month" : "Dec",
            "season_start_month" : "Jan",
            "use_auto_season" : "false",
            "weekday_offset_magnitude" : "0",
            "weekday_offset_schedule" : "0,0,0,0,0,0,0,0,0,0,0,0,0,0,0,0,0,0,0,0,0,0,0,0",
            "weekday_setpoint" : "71.0",
            "weekend_offset_magnitude" : "0",
            "weekend_offset_schedule" : "0,0,0,0,0,0,0,0,0,0,0,0,0,0,0,0,0,0,0,0,0,0,0,0",
            "weekend_setpoint" : "71.0"
         },
         "measure_dir_name" : "ResidentialHVACHeatingSetpoints",
         "result" : {
            "completed_at" : "20200409T201526Z",
            "measure_class_name" : "ProcessHeatingSetpoints",
            "measure_display_name" : "Set Residential Heating Setpoints and Schedules",
            "measure_name" : "process_heating_setpoints",
            "measure_taxonomy" : "HVAC.HVAC Controls",
            "measure_type" : "ModelMeasure",
            "measure_uid" : "2b167665-f760-462d-8c9d-1d909da7b628",
            "measure_version_id" : "6d9db5e9-8658-484e-b894-9e0683724f42",
            "measure_version_modified" : "20200324T183316Z",
            "measure_xml_checksum" : "2C877DEB",
            "started_at" : "20200409T201525Z",
            "stderr" : "",
            "stdout" : "",
            "step_errors" : [],
            "step_files" : [],
            "step_info" : [
               "Created new thermostat living zone temperature setpoint for living zone.",
               "Set a dummy cooling setpoint schedule for living zone temperature setpoint.",
               "Set the heating setpoint schedule for living zone temperature setpoint.",
               "Created new thermostat finished basement zone temperature setpoint for finished basement zone.",
               "Set a dummy cooling setpoint schedule for finished basement zone temperature setpoint.",
               "Set the heating setpoint schedule for finished basement zone temperature setpoint."
            ],
            "step_result" : "Success",
            "step_values" : [
               {
                  "name" : "weekday_setpoint",
                  "value" : "71.0"
               },
               {
                  "name" : "weekend_setpoint",
                  "value" : "71.0"
               },
               {
                  "name" : "weekday_offset_magnitude",
                  "value" : 0
               },
               {
                  "name" : "weekend_offset_magnitude",
                  "value" : 0
               },
               {
                  "name" : "weekday_offset_schedule",
                  "value" : "0,0,0,0,0,0,0,0,0,0,0,0,0,0,0,0,0,0,0,0,0,0,0,0"
               },
               {
                  "name" : "weekend_offset_schedule",
                  "value" : "0,0,0,0,0,0,0,0,0,0,0,0,0,0,0,0,0,0,0,0,0,0,0,0"
               },
               {
                  "name" : "use_auto_season",
                  "value" : false
               },
               {
                  "name" : "season_start_month",
                  "value" : "Jan"
               },
               {
                  "name" : "season_end_month",
                  "value" : "Dec"
               }
            ],
            "step_warnings" : []
         }
      },
      {
         "arguments" : {
            "season_end_month" : "Dec",
            "season_start_month" : "Jan",
            "use_auto_season" : "false",
            "weekday_offset_magnitude" : "0",
            "weekday_offset_schedule" : "0,0,0,0,0,0,0,0,0,0,0,0,0,0,0,0,0,0,0,0,0,0,0,0",
            "weekday_setpoint" : "76.0",
            "weekend_offset_magnitude" : "0",
            "weekend_offset_schedule" : "0,0,0,0,0,0,0,0,0,0,0,0,0,0,0,0,0,0,0,0,0,0,0,0",
            "weekend_setpoint" : "76.0"
         },
         "measure_dir_name" : "ResidentialHVACCoolingSetpoints",
         "result" : {
            "completed_at" : "20200409T201526Z",
            "measure_class_name" : "ProcessCoolingSetpoints",
            "measure_display_name" : "Set Residential Cooling Setpoints and Schedules",
            "measure_name" : "process_cooling_setpoints",
            "measure_taxonomy" : "HVAC.HVAC Controls",
            "measure_type" : "ModelMeasure",
            "measure_uid" : "2daa9d28-8891-4074-a1d1-bce3cb3d7ac6",
            "measure_version_id" : "f8680ca0-cd69-4f24-8145-b61dc7de4f5c",
            "measure_version_modified" : "20200324T183315Z",
            "measure_xml_checksum" : "356BE47F",
            "started_at" : "20200409T201526Z",
            "stderr" : "",
            "stdout" : "",
            "step_errors" : [],
            "step_files" : [],
            "step_info" : [
               "Found existing thermostat living zone temperature setpoint for living zone.",
               "Set the cooling setpoint schedule for living zone temperature setpoint.",
               "Set the cooling setpoint schedule for finished basement zone temperature setpoint."
            ],
            "step_result" : "Success",
            "step_values" : [
               {
                  "name" : "weekday_setpoint",
                  "value" : "76.0"
               },
               {
                  "name" : "weekend_setpoint",
                  "value" : "76.0"
               },
               {
                  "name" : "weekday_offset_magnitude",
                  "value" : 0
               },
               {
                  "name" : "weekend_offset_magnitude",
                  "value" : 0
               },
               {
                  "name" : "weekday_offset_schedule",
                  "value" : "0,0,0,0,0,0,0,0,0,0,0,0,0,0,0,0,0,0,0,0,0,0,0,0"
               },
               {
                  "name" : "weekend_offset_schedule",
                  "value" : "0,0,0,0,0,0,0,0,0,0,0,0,0,0,0,0,0,0,0,0,0,0,0,0"
               },
               {
                  "name" : "use_auto_season",
                  "value" : false
               },
               {
                  "name" : "season_start_month",
                  "value" : "Jan"
               },
               {
                  "name" : "season_end_month",
                  "value" : "Dec"
               }
            ],
            "step_warnings" : []
         }
      },
      {
         "arguments" : {
            "location" : "auto",
            "monthly_sch" : "0.837, 0.835, 1.084, 1.084, 1.084, 1.096, 1.096, 1.096, 1.096, 0.931, 0.925, 0.837",
            "mult" : "1",
            "rated_annual_energy" : "434",
            "weekday_sch" : "0.040, 0.039, 0.038, 0.037, 0.036, 0.036, 0.038, 0.040, 0.041, 0.041, 0.040, 0.040, 0.042, 0.042, 0.042, 0.041, 0.044, 0.048, 0.050, 0.048, 0.047, 0.046, 0.044, 0.041",
            "weekend_sch" : "0.040, 0.039, 0.038, 0.037, 0.036, 0.036, 0.038, 0.040, 0.041, 0.041, 0.040, 0.040, 0.042, 0.042, 0.042, 0.041, 0.044, 0.048, 0.050, 0.048, 0.047, 0.046, 0.044, 0.041"
         },
         "measure_dir_name" : "ResidentialApplianceRefrigerator",
         "result" : {
            "completed_at" : "20200409T201526Z",
            "measure_class_name" : "ResidentialRefrigerator",
            "measure_display_name" : "Set Residential Refrigerator",
            "measure_name" : "residential_refrigerator",
            "measure_taxonomy" : "Equipment.Electric Equipment",
            "measure_type" : "ModelMeasure",
            "measure_uid" : "f0259bdc-1391-41eb-80eb-efc10bd1bc02",
            "measure_version_id" : "adf65169-ff16-49fb-b28c-3e65f886c947",
            "measure_version_modified" : "20200324T183310Z",
            "measure_xml_checksum" : "126F1C43",
            "started_at" : "20200409T201526Z",
            "stderr" : "",
            "stdout" : "",
            "step_errors" : [],
            "step_files" : [],
            "step_final_condition" : "A refrigerator with 434 kWhs annual energy consumption has been assigned to space 'living space'.",
            "step_info" : [],
            "step_result" : "Success",
            "step_values" : [
               {
                  "name" : "rated_annual_energy",
                  "value" : 434
               },
               {
                  "name" : "mult",
                  "value" : 1
               },
               {
                  "name" : "weekday_sch",
                  "value" : "0.040, 0.039, 0.038, 0.037, 0.036, 0.036, 0.038, 0.040, 0.041, 0.041, 0.040, 0.040, 0.042, 0.042, 0.042, 0.041, 0.044, 0.048, 0.050, 0.048, 0.047, 0.046, 0.044, 0.041"
               },
               {
                  "name" : "weekend_sch",
                  "value" : "0.040, 0.039, 0.038, 0.037, 0.036, 0.036, 0.038, 0.040, 0.041, 0.041, 0.040, 0.040, 0.042, 0.042, 0.042, 0.041, 0.044, 0.048, 0.050, 0.048, 0.047, 0.046, 0.044, 0.041"
               },
               {
                  "name" : "monthly_sch",
                  "value" : "0.837, 0.835, 1.084, 1.084, 1.084, 1.096, 1.096, 1.096, 1.096, 0.931, 0.925, 0.837"
               },
               {
                  "name" : "location",
                  "value" : "auto"
               }
            ],
            "step_warnings" : []
         }
      },
      {
         "arguments" : {
            "annual_cost" : "24",
            "cold_cycle" : "false",
            "drum_volume" : "3.5",
            "fill_sensor" : "false",
            "imef" : "0.95",
            "internal_heater" : "false",
            "location" : "auto",
            "mult_e" : "1",
            "mult_hw" : "1",
            "plant_loop" : "auto",
            "rated_annual_energy" : "387",
            "schedule_day_shift" : "0",
            "test_date" : "2007",
            "thermostatic_control" : "true"
         },
         "measure_dir_name" : "ResidentialApplianceClothesWasher",
         "result" : {
            "completed_at" : "20200409T201526Z",
            "measure_class_name" : "ResidentialClothesWasher",
            "measure_display_name" : "Set Residential Clothes Washer",
            "measure_name" : "residential_clothes_washer",
            "measure_taxonomy" : "Equipment.Electric Equipment",
            "measure_type" : "ModelMeasure",
            "measure_uid" : "640bfdca-ba67-461e-b517-1a7291c22b22",
            "measure_version_id" : "f2ff3735-4abd-4bd1-99b0-cff1da022653",
            "measure_version_modified" : "20200324T183310Z",
            "measure_xml_checksum" : "126F1C43",
            "started_at" : "20200409T201526Z",
            "stderr" : "",
            "stdout" : "",
            "step_errors" : [],
            "step_files" : [],
            "step_final_condition" : "A clothes washer with 43 kWhs annual energy consumption has been added to plant loop 'Domestic Hot Water Loop' and assigned to space 'living space'.",
            "step_info" : [],
            "step_result" : "Success",
            "step_values" : [
               {
                  "name" : "imef",
                  "value" : 0.94999999999999996
               },
               {
                  "name" : "rated_annual_energy",
                  "value" : 387
               },
               {
                  "name" : "annual_cost",
                  "value" : 24
               },
               {
                  "name" : "test_date",
                  "value" : 2007
               },
               {
                  "name" : "drum_volume",
                  "value" : 3.5
               },
               {
                  "name" : "cold_cycle",
                  "value" : false
               },
               {
                  "name" : "thermostatic_control",
                  "value" : true
               },
               {
                  "name" : "internal_heater",
                  "value" : false
               },
               {
                  "name" : "fill_sensor",
                  "value" : false
               },
               {
                  "name" : "mult_e",
                  "value" : 1
               },
               {
                  "name" : "mult_hw",
                  "value" : 1
               },
               {
                  "name" : "location",
                  "value" : "auto"
               },
               {
                  "name" : "plant_loop",
                  "value" : "auto"
               },
               {
                  "name" : "schedule_day_shift",
                  "value" : 0
               }
            ],
            "step_warnings" : []
         }
      },
      {
         "arguments" : {
            "cef" : "2.4",
            "fuel_split" : "0.07",
            "fuel_type" : "gas",
            "location" : "auto",
            "mult" : "1"
         },
         "measure_dir_name" : "ResidentialApplianceClothesDryer",
         "result" : {
            "completed_at" : "20200409T201527Z",
            "measure_class_name" : "ResidentialClothesDryer",
            "measure_display_name" : "Set Residential Clothes Dryer",
            "measure_name" : "residential_clothes_dryer",
            "measure_taxonomy" : "Equipment.Gas Equipment",
            "measure_type" : "ModelMeasure",
            "measure_uid" : "0ed6fb35-c3e0-4a33-a397-ce4cec92d96e",
            "measure_version_id" : "370bda27-c9d0-42cd-b2c2-4682b2925a04",
            "measure_version_modified" : "20200324T183310Z",
            "measure_xml_checksum" : "25A40D75",
            "started_at" : "20200409T201527Z",
            "stderr" : "",
            "stdout" : "",
            "step_errors" : [],
            "step_files" : [],
            "step_final_condition" : "A clothes dryer with 37 therms and 81 kWhs annual energy consumption has been assigned to space 'living space'.",
            "step_info" : [],
            "step_result" : "Success",
            "step_values" : [
               {
                  "name" : "fuel_type",
                  "value" : "gas"
               },
               {
                  "name" : "cef",
                  "value" : 2.3999999999999999
               },
               {
                  "name" : "fuel_split",
                  "value" : 0.070000000000000007
               },
               {
                  "name" : "mult",
                  "value" : 1
               },
               {
                  "name" : "location",
                  "value" : "auto"
               }
            ],
            "step_warnings" : []
         }
      },
      {
         "arguments" : {
            "annual_gas_cost" : "23",
            "cold_inlet" : "false",
            "cold_use" : "0",
            "has_internal_heater" : "true",
            "location" : "auto",
            "mult_e" : "1",
            "mult_hw" : "1",
            "num_settings" : "12",
            "plant_loop" : "auto",
            "rated_annual_energy" : "290",
            "schedule_day_shift" : "0",
            "test_date" : "2007"
         },
         "measure_dir_name" : "ResidentialApplianceDishwasher",
         "result" : {
            "completed_at" : "20200409T201527Z",
            "measure_class_name" : "ResidentialDishwasher",
            "measure_display_name" : "Set Residential Dishwasher",
            "measure_name" : "residential_dishwasher",
            "measure_taxonomy" : "Equipment.Electric Equipment",
            "measure_type" : "ModelMeasure",
            "measure_uid" : "09ea4570-4666-4a55-812f-5e90091f5325",
[...]
                  "value" : "0.035, 0.033, 0.032, 0.031, 0.032, 0.033, 0.037, 0.042, 0.043, 0.043, 0.043, 0.044, 0.045, 0.045, 0.044, 0.046, 0.048, 0.052, 0.053, 0.05, 0.047, 0.045, 0.04, 0.036"
               },
               {
                  "name" : "monthly_sch",
                  "value" : "1.248, 1.257, 0.993, 0.989, 0.993, 0.827, 0.821, 0.821, 0.827, 0.99, 0.987, 1.248"
               },
               {
                  "name" : "holiday_daily_energy_use_exterior",
                  "value" : 0
               },
               {
                  "name" : "holiday_start_date",
                  "value" : "November 27"
               },
               {
                  "name" : "holiday_end_date",
                  "value" : "January 6"
               },
               {
                  "name" : "holiday_sch",
                  "value" : "0.0, 0.0, 0.0, 0.0, 0.0, 0.0, 0.0, 0.0, 0.0, 0.0, 0.0, 0.0, 0.0, 0.0, 0.0, 0.0, 0.008168, 0.098016, 0.168028, 0.193699, 0.283547, 0.192532, 0.03734, 0.01867"
               }
            ],
            "step_warnings" : []
         }
      },
      {
         "arguments" : {
            "energy_use" : "2000",
            "lat_frac" : "0.021",
            "monthly_sch" : "1.248, 1.257, 0.993, 0.989, 0.993, 0.827, 0.821, 0.821, 0.827, 0.99, 0.987, 1.248",
            "mult" : "1",
            "option_type" : "Multiplier",
            "sens_frac" : "0.93",
            "weekday_sch" : "0.035, 0.033, 0.032, 0.031, 0.032, 0.033, 0.037, 0.042, 0.043, 0.043, 0.043, 0.044, 0.045, 0.045, 0.044, 0.046, 0.048, 0.052, 0.053, 0.05, 0.047, 0.045, 0.04, 0.036",
            "weekend_sch" : "0.035, 0.033, 0.032, 0.031, 0.032, 0.033, 0.037, 0.042, 0.043, 0.043, 0.043, 0.044, 0.045, 0.045, 0.044, 0.046, 0.048, 0.052, 0.053, 0.05, 0.047, 0.045, 0.04, 0.036"
         },
         "measure_dir_name" : "ResidentialMiscPlugLoads",
         "result" : {
            "completed_at" : "20200409T201528Z",
            "measure_class_name" : "ResidentialMiscElectricLoads",
            "measure_display_name" : "Set Residential Plug Loads",
            "measure_name" : "residential_misc_electric_loads",
            "measure_taxonomy" : "Equipment.Electric Equipment",
            "measure_type" : "ModelMeasure",
            "measure_uid" : "3ac41688-ef52-4679-b79c-8cbdf7cbd0e7",
            "measure_version_id" : "18bde780-0caa-49c3-be6f-b7c8e76dadc1",
            "measure_version_modified" : "20200324T183316Z",
            "measure_xml_checksum" : "126F1C43",
            "started_at" : "20200409T201528Z",
            "stderr" : "",
            "stdout" : "",
            "step_errors" : [],
            "step_files" : [],
            "step_final_condition" : "Plug loads with 2201 kWhs annual energy consumption has been assigned to unit 'unit 1'.",
            "step_info" : [],
            "step_result" : "Success",
            "step_values" : [
               {
                  "name" : "option_type",
                  "value" : "Multiplier"
               },
               {
                  "name" : "mult",
                  "value" : 1
               },
               {
                  "name" : "energy_use",
                  "value" : 2000
               },
               {
                  "name" : "sens_frac",
                  "value" : 0.93000000000000005
               },
               {
                  "name" : "lat_frac",
                  "value" : 0.021000000000000001
               },
               {
                  "name" : "weekday_sch",
                  "value" : "0.035, 0.033, 0.032, 0.031, 0.032, 0.033, 0.037, 0.042, 0.043, 0.043, 0.043, 0.044, 0.045, 0.045, 0.044, 0.046, 0.048, 0.052, 0.053, 0.05, 0.047, 0.045, 0.04, 0.036"
               },
               {
                  "name" : "weekend_sch",
                  "value" : "0.035, 0.033, 0.032, 0.031, 0.032, 0.033, 0.037, 0.042, 0.043, 0.043, 0.043, 0.044, 0.045, 0.045, 0.044, 0.046, 0.048, 0.052, 0.053, 0.05, 0.047, 0.045, 0.04, 0.036"
               },
               {
                  "name" : "monthly_sch",
                  "value" : "1.248, 1.257, 0.993, 0.989, 0.993, 0.827, 0.821, 0.821, 0.827, 0.99, 0.987, 1.248"
               }
            ],
            "step_warnings" : []
         }
      },
      {
         "arguments" : {
            "bathroom_exhaust_hour" : "5",
            "clothes_dryer_exhaust" : "100",
            "crawl_ach" : "0",
            "duct_ah_return_frac" : "0.267",
            "duct_ah_supply_frac" : "0.067",
            "duct_location" : "auto",
            "duct_location_frac" : "auto",
            "duct_num_returns" : "auto",
            "duct_r" : "0",
            "duct_return_area_mult" : "1",
            "duct_return_frac" : "0.067",
            "duct_supply_area_mult" : "1",
            "duct_supply_frac" : "0.6",
            "duct_total_leakage" : "0.3",
            "finished_basement_ach" : "0",
            "garage_ach50" : "7",
            "has_fireplace_chimney" : "false",
            "has_hvac_flue" : "false",
            "has_water_heater_flue" : "false",
            "is_existing_home" : "false",
            "living_ach50" : "7",
            "mech_vent_ashrae_std" : "2010",
            "mech_vent_cfis_airflow_frac" : "1",
            "mech_vent_cfis_open_time" : "20",
            "mech_vent_fan_power" : "0.15",
            "mech_vent_frac_62_2" : "1",
            "mech_vent_infil_credit" : "true",
            "mech_vent_sensible_efficiency" : "0",
            "mech_vent_total_efficiency" : "0",
            "mech_vent_type" : "exhaust",
            "nat_vent_clg_offset" : "1",
            "nat_vent_clg_season" : "true",
            "nat_vent_frac_window_area_openable" : "0.2",
            "nat_vent_frac_windows_open" : "0.33",
            "nat_vent_htg_offset" : "1",
            "nat_vent_htg_season" : "true",
            "nat_vent_max_oa_hr" : "0.0115",
            "nat_vent_max_oa_rh" : "0.7",
            "nat_vent_num_weekdays" : "3",
            "nat_vent_num_weekends" : "0",
            "nat_vent_ovlp_offset" : "1",
            "nat_vent_ovlp_season" : "true",
            "pier_beam_ach" : "100",
            "range_exhaust_hour" : "16",
            "shelter_coef" : "auto",
            "terrain" : "suburban",
            "unfinished_attic_sla" : "0.00333",
            "unfinished_basement_ach" : "0.1"
         },
         "measure_dir_name" : "ResidentialAirflow",
         "result" : {
            "completed_at" : "20200409T201529Z",
            "measure_class_name" : "ResidentialAirflow",
            "measure_display_name" : "Set Residential Airflow",
            "measure_name" : "residential_airflow",
            "measure_taxonomy" : "Envelope.Infiltration",
            "measure_type" : "ModelMeasure",
            "measure_uid" : "7d2adf5c-9995-49be-b662-a23d2452bb36",
            "measure_version_id" : "89dd5089-1742-4d13-ba4b-57629ad05fb2",
            "measure_version_modified" : "20200324T183309Z",
            "measure_xml_checksum" : "19EEDBBB",
            "started_at" : "20200409T201528Z",
            "stderr" : "",
            "stdout" : "",
            "step_errors" : [],
            "step_files" : [],
            "step_info" : [
               "Created ducts for res ashp htg asys.",
               "Created ducts for res ashp clg asys."
            ],
            "step_result" : "Success",
            "step_values" : [
               {
                  "name" : "living_ach50",
                  "value" : 7
               },
               {
                  "name" : "garage_ach50",
                  "value" : 7
               },
               {
                  "name" : "finished_basement_ach",
                  "value" : 0
               },
               {
                  "name" : "unfinished_basement_ach",
                  "value" : 0.10000000000000001
               },
               {
                  "name" : "crawl_ach",
                  "value" : 0
               },
               {
                  "name" : "pier_beam_ach",
                  "value" : 100
               },
               {
                  "name" : "unfinished_attic_sla",
                  "value" : 0.0033300000000000001
               },
               {
                  "name" : "shelter_coef",
                  "value" : "auto"
               },
               {
                  "name" : "has_hvac_flue",
                  "value" : false
               },
               {
                  "name" : "has_water_heater_flue",
                  "value" : false
               },
               {
                  "name" : "has_fireplace_chimney",
                  "value" : false
               },
               {
                  "name" : "terrain",
                  "value" : "suburban"
               },
               {
                  "name" : "mech_vent_type",
                  "value" : "exhaust"
               },
               {
                  "name" : "mech_vent_fan_power",
                  "value" : 0.14999999999999999
               },
               {
                  "name" : "mech_vent_total_efficiency",
                  "value" : 0
               },
               {
                  "name" : "mech_vent_sensible_efficiency",
                  "value" : 0
               },
               {
                  "name" : "mech_vent_frac_62_2",
                  "value" : 1
               },
               {
                  "name" : "mech_vent_ashrae_std",
                  "value" : "2010"
               },
               {
                  "name" : "mech_vent_infil_credit",
                  "value" : true
               },
               {
                  "name" : "is_existing_home",
                  "value" : false
               },
               {
                  "name" : "mech_vent_cfis_open_time",
                  "value" : 20
               },
               {
                  "name" : "mech_vent_cfis_airflow_frac",
                  "value" : 1
               },
               {
                  "name" : "range_exhaust_hour",
                  "value" : 16
               },
               {
                  "name" : "bathroom_exhaust_hour",
                  "value" : 5
               },
               {
                  "name" : "clothes_dryer_exhaust",
                  "value" : 100
               },
               {
                  "name" : "nat_vent_htg_offset",
                  "value" : 1
               },
               {
                  "name" : "nat_vent_clg_offset",
                  "value" : 1
               },
               {
                  "name" : "nat_vent_ovlp_offset",
                  "value" : 1
               },
               {
                  "name" : "nat_vent_htg_season",
                  "value" : true
               },
               {
                  "name" : "nat_vent_clg_season",
                  "value" : true
               },
               {
                  "name" : "nat_vent_ovlp_season",
                  "value" : true
               },
               {
                  "name" : "nat_vent_num_weekdays",
                  "value" : 3
               },
               {
                  "name" : "nat_vent_num_weekends",
                  "value" : 0
               },
               {
                  "name" : "nat_vent_frac_windows_open",
                  "value" : 0.33000000000000002
               },
               {
                  "name" : "nat_vent_frac_window_area_openable",
                  "value" : 0.20000000000000001
               },
               {
                  "name" : "nat_vent_max_oa_hr",
                  "value" : 0.0115
               },
               {
                  "name" : "nat_vent_max_oa_rh",
                  "value" : 0.69999999999999996
               },
               {
                  "name" : "duct_location",
                  "value" : "auto"
               },
               {
                  "name" : "duct_total_leakage",
                  "value" : 0.29999999999999999
               },
               {
                  "name" : "duct_supply_frac",
                  "value" : 0.59999999999999998
               },
               {
                  "name" : "duct_return_frac",
                  "value" : 0.067000000000000004
               },
               {
                  "name" : "duct_ah_supply_frac",
                  "value" : 0.067000000000000004
               },
               {
                  "name" : "duct_ah_return_frac",
                  "value" : 0.26700000000000002
               },
               {
                  "name" : "duct_location_frac",
                  "value" : "auto"
               },
               {
                  "name" : "duct_num_returns",
                  "value" : "auto"
               },
               {
                  "name" : "duct_supply_area_mult",
                  "value" : 1
               },
               {
                  "name" : "duct_return_area_mult",
                  "value" : 1
               },
               {
                  "name" : "duct_r",
                  "value" : 0
               }
            ],
            "step_warnings" : []
         }
      },
      {
         "arguments" : {
            "show_debug_info" : "false"
         },
         "measure_dir_name" : "ResidentialHVACSizing",
         "result" : {
            "completed_at" : "20200409T201529Z",
            "measure_class_name" : "ProcessHVACSizing",
            "measure_display_name" : "Set Residential HVAC Sizing",
            "measure_name" : "process_hvac_sizing",
            "measure_taxonomy" : "HVAC.HVAC Controls",
            "measure_type" : "ModelMeasure",
            "measure_uid" : "6cd70740-6ca3-4575-8b1e-663976e254d0",
            "measure_version_id" : "86dc85ce-8743-4ffa-9215-c1e898f8130b",
            "measure_version_modified" : "20190701T173020Z",
            "measure_xml_checksum" : "356BE47F",
            "started_at" : "20200409T201529Z",
            "stderr" : "",
            "stdout" : "",
            "step_errors" : [],
            "step_files" : [],
            "step_final_condition" : "HVAC objects updated as appropriate.",
            "step_info" : [
               "Found air source heat pump providing cooling in living zone.",
               "Found air source heat pump providing heating in living zone."
            ],
            "step_result" : "Success",
            "step_values" : [
               {
                  "name" : "show_debug_info",
                  "value" : false
               }
            ],
            "step_warnings" : []
         }
      },
      {
         "arguments" : {
            "array_type" : "FixedRoofMounted",
            "azimuth" : "180",
            "azimuth_type" : "relative",
            "inverter_efficiency" : "0.96",
            "module_type" : "Standard",
            "size" : "2.5",
            "system_losses" : "0.14",
            "tilt" : "0",
            "tilt_type" : "pitch"
         },
         "measure_dir_name" : "ResidentialPhotovoltaics",
         "result" : {
            "completed_at" : "20200409T201530Z",
            "measure_class_name" : "ResidentialPhotovoltaics",
            "measure_display_name" : "Set Residential Photovoltaics",
            "measure_name" : "residential_photovoltaics",
            "measure_taxonomy" : "Onsite Power Generation.Photovoltaic",
            "measure_type" : "ModelMeasure",
            "measure_uid" : "3ed7d5e0-4441-43d9-a47e-ae4560a6db92",
            "measure_version_id" : "770a26e4-a35e-4c9b-94df-d7ca9c4f611e",
            "measure_version_modified" : "20200324T183316Z",
            "measure_xml_checksum" : "1BFC8ABF",
            "started_at" : "20200409T201529Z",
            "stderr" : "[BOOST_ASSERT] <2> Assertion result failed on line 239 of bool __cdecl openstudio::model::detail::GeneratorPVWatts_Impl::setTiltAngle(double) in file C:\\Users\\jenkins\\git\\OpenStudio\\openstudiocore\\src\\model\\GeneratorPVWatts.cpp.\n",
            "stdout" : "[BOOST_ASSERT] <2> Assertion result failed on line 239 of bool __cdecl openstudio::model::detail::GeneratorPVWatts_Impl::setTiltAngle(double) in file C:\\Users\\jenkins\\git\\OpenStudio\\openstudiocore\\src\\model\\GeneratorPVWatts.cpp.\n",
            "step_errors" : [],
            "step_files" : [],
            "step_info" : [],
            "step_result" : "Success",
            "step_values" : [
               {
                  "name" : "size",
                  "value" : 2.5
               },
               {
                  "name" : "module_type",
                  "value" : "Standard"
               },
               {
                  "name" : "array_type",
                  "value" : "FixedRoofMounted"
               },
               {
                  "name" : "system_losses",
                  "value" : 0.14000000000000001
               },
               {
                  "name" : "inverter_efficiency",
                  "value" : 0.95999999999999996
               },
               {
                  "name" : "azimuth_type",
                  "value" : "relative"
               },
               {
                  "name" : "azimuth",
                  "value" : 180
               },
               {
                  "name" : "tilt_type",
                  "value" : "pitch"
               },
               {
                  "name" : "tilt",
                  "value" : 0
               }
            ],
            "step_warnings" : []
         }
      },
      {
         "arguments" : {
            "dr_directory" : "../HPXMLtoOpenStudio/resources",
            "dr_schedule_cool" : "DR_ScheduleCoolSetup.csv",
            "dr_schedule_heat" : "DR_ScheduleHeatSetback.csv",
            "offset_magnitude_cool" : "0",
            "offset_magnitude_heat" : "0"
         },
         "measure_dir_name" : "ResidentialDemandResponse",
         "result" : {
            "completed_at" : "20200409T201530Z",
            "measure_class_name" : "DemandResponseSchedule",
            "measure_display_name" : "DemandResponseSchedule",
            "measure_name" : "DemandResponseSchedule",
            "measure_taxonomy" : "HVAC.Whole System",
            "measure_type" : "ModelMeasure",
            "measure_uid" : "d3d8baa6-dadd-48cc-87bf-b5fbb3b69747",
            "measure_version_id" : "29d0cbc9-4a8e-4065-8b22-52eddf3fde37",
            "measure_version_modified" : "20200324T183312Z",
            "measure_xml_checksum" : "ED6112BA",
            "started_at" : "20200409T201530Z",
            "stderr" : "[openstudio.EpwFile] <0> Successive data points (1995-Jan-31 to 1994-Feb-01, ending on line 753) are greater than 1 day apart in EPW file 'C:/Users/aspeake/Documents/OpenStudio-BuildStock/resources/measures/HPXMLtoOpenStudio/weather/USA_CO_Denver.Intl.AP.725650_TMY3.epw'. Data will be treated as typical (TMY)\n",
            "stdout" : "",
            "step_errors" : [],
            "step_files" : [],
            "step_info" : [ "DR offset magnitudes are set to zero, no thermostat DR applied" ],
            "step_result" : "Success",
            "step_values" : [
               {
                  "name" : "dr_directory",
                  "value" : "../HPXMLtoOpenStudio/resources"
               },
               {
                  "name" : "dr_schedule_heat",
                  "value" : "DR_ScheduleHeatSetback.csv"
               },
               {
                  "name" : "offset_magnitude_heat",
                  "value" : 0
               },
               {
                  "name" : "dr_schedule_cool",
                  "value" : "DR_ScheduleCoolSetup.csv"
               },
               {
                  "name" : "offset_magnitude_cool",
                  "value" : 0
               }
            ],
            "step_warnings" : []
         }
      }
   ],
   "updated_at" : "20200409T201621Z"
}
